file 90638365 1743311907                                        
version 2
run Exp1DropTailWithoutPolicingAndShaping-0-20250330-01:17:59-13444
attr configname Exp1DropTailWithoutPolicingAndShaping
attr datetime 20250330-01:17:59
attr experiment Exp1DropTailWithoutPolicingAndShaping
attr inifile omnetpp.ini
attr iterationvars ""
attr iterationvarsf ""
attr measurement ""
attr network projectphase3
attr processid 13444
attr repetition 0
attr replication #0
attr resultdir results
attr runnumber 0
attr seedset 0
param **.ppp[*].ppp.queue.typename "\"DropTailQueue\""
param **.eth[*].mac.queue.typename "\"EtherQosQueue\""
param **.eth[*].mac.queue.dataQueue.typename "\"DropTailQueue\""
param **.queue.packetCapacity 100
param **.H?.numApps 3
param **.H1.app[0].typename "\"UdpBasicBurst\""
param **.H1.app[0].destAddresses "\"H2\""
param **.H1.app[0].chooseDestAddrMode "\"once\""
param **.H1.app[0].destPort 1000
param **.H1.app[0].startTime uniform(1s,2s)
param **.H1.app[0].stopTime 1200s
param **.H1.app[0].messageLength 172B
param **.H1.app[0].burstDuration exponential(0.352s)
param **.H1.app[0].sleepDuration exponential(0.650s)
param **.H1.app[0].sendInterval 20ms
param **.H2.app[0].typename "\"UdpBasicBurst\""
param **.H2.app[0].localPort 1000
param **.H2.app[0].delayLimit 0ms
param **.H2.app[0].destAddresses "\"\""
param **.H2.app[0].chooseDestAddrMode "\"once\""
param **.H2.app[0].destPort 0
param **.H2.app[0].messageLength 0B
param **.H2.app[0].burstDuration 0s
param **.H2.app[0].sleepDuration 0s
param **.H2.app[0].sendInterval 0ms
param **.H1.app[1].typename "\"UdpBasicApp\""
param **.H1.app[1].destPort 2000
param **.H1.app[1].startTime uniform(1s,2s)
param **.H1.app[1].stopTime 1200s
param **.H1.app[1].sendInterval 40ms
param **.H1.app[1].messageLength 500B
param **.H1.app[1].destAddresses "\"H2\""
param **.H2.app[1].typename "\"UdpSink\""
param **.H2.app[1].localPort 2000
param **.H1.app[2].typename "\"TcpBasicClientApp\""
param **.H1.app[2].connectAddress "\"H2\""
param **.H1.app[2].connectPort 3000
param **.H1.app[2].numRequestsPerSession 1
param **.H1.app[2].requestLength 50B
param **.H1.app[2].replyLength 100B
param **.H1.app[2].thinkTime 40ms
param **.H1.app[2].idleInterval 10s
param **.H1.app[2].stopTime 1200s
param **.H2.app[2].typename "\"TcpGenericServerApp\""
param **.H2.app[2].localPort 3000
param **.edgeDatarate 32kbps
param **.coreDatarate 16kbps
param **.R2.eth[?].ingressTC.typename "\"TC1\""
param **.R9.eth[?].ingressTC.typename "\"TC1\""
param **.ingressTC.numClasses 3
param **.ingressTC.classifier.filters "xmldoc(\"filters.xml\", \"//experiment[@id='default']\")"
param **.ingressTC.marker.dscps "\"AF11 AF21 AF31 AF41 BE\""
param **.queue.typename "\"EtherQosQueue\""
param **.queue.dataQueue.typename "\"DropTailQueue\""
param **.queue.packetCapacity 100
param **.queue.dataQueue.packetCapacity 100
param **.R*.hasOspf true
param **.R*.ospf.ospfConfig "xmldoc(\"OSPFConfig.xml\")"

vector 0 projectphase3.H1.ethg$o[0].channel busy:vector ETV
attr interpolationmode sample-hold
attr source channelBusy
vector 1 projectphase3.H2.ethg$o[0].channel busy:vector ETV
attr interpolationmode sample-hold
attr source channelBusy
vector 2 projectphase3.R1.pppg$o[0].channel busy:vector ETV
attr interpolationmode sample-hold
attr source channelBusy
vector 3 projectphase3.R1.pppg$o[1].channel busy:vector ETV
attr interpolationmode sample-hold
attr source channelBusy
vector 4 projectphase3.R2.pppg$o[0].channel busy:vector ETV
attr interpolationmode sample-hold
attr source channelBusy
vector 5 projectphase3.R2.pppg$o[1].channel busy:vector ETV
attr interpolationmode sample-hold
attr source channelBusy
vector 6 projectphase3.R2.ethg$o[0].channel busy:vector ETV
attr interpolationmode sample-hold
attr source channelBusy
vector 7 projectphase3.R3.pppg$o[0].channel busy:vector ETV
attr interpolationmode sample-hold
attr source channelBusy
vector 8 projectphase3.R3.pppg$o[1].channel busy:vector ETV
attr interpolationmode sample-hold
attr source channelBusy
vector 9 projectphase3.R4.pppg$o[0].channel busy:vector ETV
attr interpolationmode sample-hold
attr source channelBusy
vector 10 projectphase3.R4.pppg$o[1].channel busy:vector ETV
attr interpolationmode sample-hold
attr source channelBusy
vector 11 projectphase3.R4.pppg$o[2].channel busy:vector ETV
attr interpolationmode sample-hold
attr source channelBusy
vector 12 projectphase3.R5.pppg$o[0].channel busy:vector ETV
attr interpolationmode sample-hold
attr source channelBusy
vector 13 projectphase3.R5.pppg$o[1].channel busy:vector ETV
attr interpolationmode sample-hold
attr source channelBusy
vector 14 projectphase3.R5.pppg$o[2].channel busy:vector ETV
attr interpolationmode sample-hold
attr source channelBusy
vector 15 projectphase3.R6.pppg$o[0].channel busy:vector ETV
attr interpolationmode sample-hold
attr source channelBusy
vector 16 projectphase3.R6.pppg$o[1].channel busy:vector ETV
attr interpolationmode sample-hold
attr source channelBusy
vector 17 projectphase3.R6.pppg$o[2].channel busy:vector ETV
attr interpolationmode sample-hold
attr source channelBusy
vector 18 projectphase3.R7.pppg$o[0].channel busy:vector ETV
attr interpolationmode sample-hold
attr source channelBusy
vector 19 projectphase3.R7.pppg$o[1].channel busy:vector ETV
attr interpolationmode sample-hold
attr source channelBusy
vector 20 projectphase3.R12.pppg$o[0].channel busy:vector ETV
attr interpolationmode sample-hold
attr source channelBusy
vector 21 projectphase3.R12.pppg$o[1].channel busy:vector ETV
attr interpolationmode sample-hold
attr source channelBusy
vector 22 projectphase3.R8.pppg$o[0].channel busy:vector ETV
attr interpolationmode sample-hold
attr source channelBusy
vector 23 projectphase3.R8.pppg$o[1].channel busy:vector ETV
attr interpolationmode sample-hold
attr source channelBusy
vector 24 projectphase3.R8.pppg$o[2].channel busy:vector ETV
attr interpolationmode sample-hold
attr source channelBusy
vector 25 projectphase3.R9.pppg$o[0].channel busy:vector ETV
attr interpolationmode sample-hold
attr source channelBusy
vector 26 projectphase3.R9.pppg$o[1].channel busy:vector ETV
attr interpolationmode sample-hold
attr source channelBusy
vector 27 projectphase3.R9.ethg$o[0].channel busy:vector ETV
attr interpolationmode sample-hold
attr source channelBusy
vector 28 projectphase3.R10.pppg$o[0].channel busy:vector ETV
attr interpolationmode sample-hold
attr source channelBusy
vector 29 projectphase3.R10.pppg$o[1].channel busy:vector ETV
attr interpolationmode sample-hold
attr source channelBusy
vector 30 projectphase3.R11.pppg$o[0].channel busy:vector ETV
attr interpolationmode sample-hold
attr source channelBusy
vector 31 projectphase3.R11.pppg$o[1].channel busy:vector ETV
attr interpolationmode sample-hold
attr source channelBusy
vector 32 projectphase3.R1.ppp[0].ppp transmissionState:vector ETV
attr interpolationmode sample-hold
attr source transmissionStateChanged
attr title "tx state, vector"
vector 33 projectphase3.R1.ppp[1].ppp transmissionState:vector ETV
attr interpolationmode sample-hold
attr source transmissionStateChanged
attr title "tx state, vector"
vector 34 projectphase3.R2.ppp[0].ppp transmissionState:vector ETV
attr interpolationmode sample-hold
attr source transmissionStateChanged
attr title "tx state, vector"
vector 35 projectphase3.R2.ppp[1].ppp transmissionState:vector ETV
attr interpolationmode sample-hold
attr source transmissionStateChanged
attr title "tx state, vector"
vector 36 projectphase3.R3.ppp[0].ppp transmissionState:vector ETV
attr interpolationmode sample-hold
attr source transmissionStateChanged
attr title "tx state, vector"
vector 37 projectphase3.R3.ppp[1].ppp transmissionState:vector ETV
attr interpolationmode sample-hold
attr source transmissionStateChanged
attr title "tx state, vector"
vector 38 projectphase3.R4.ppp[0].ppp transmissionState:vector ETV
attr interpolationmode sample-hold
attr source transmissionStateChanged
attr title "tx state, vector"
vector 39 projectphase3.R4.ppp[1].ppp transmissionState:vector ETV
attr interpolationmode sample-hold
attr source transmissionStateChanged
attr title "tx state, vector"
vector 40 projectphase3.R4.ppp[2].ppp transmissionState:vector ETV
attr interpolationmode sample-hold
attr source transmissionStateChanged
attr title "tx state, vector"
vector 41 projectphase3.R5.ppp[0].ppp transmissionState:vector ETV
attr interpolationmode sample-hold
attr source transmissionStateChanged
attr title "tx state, vector"
vector 42 projectphase3.R5.ppp[1].ppp transmissionState:vector ETV
attr interpolationmode sample-hold
attr source transmissionStateChanged
attr title "tx state, vector"
vector 43 projectphase3.R5.ppp[2].ppp transmissionState:vector ETV
attr interpolationmode sample-hold
attr source transmissionStateChanged
attr title "tx state, vector"
vector 44 projectphase3.R6.ppp[0].ppp transmissionState:vector ETV
attr interpolationmode sample-hold
attr source transmissionStateChanged
attr title "tx state, vector"
vector 45 projectphase3.R6.ppp[1].ppp transmissionState:vector ETV
attr interpolationmode sample-hold
attr source transmissionStateChanged
attr title "tx state, vector"
vector 46 projectphase3.R6.ppp[2].ppp transmissionState:vector ETV
attr interpolationmode sample-hold
attr source transmissionStateChanged
attr title "tx state, vector"
vector 47 projectphase3.R7.ppp[0].ppp transmissionState:vector ETV
attr interpolationmode sample-hold
attr source transmissionStateChanged
attr title "tx state, vector"
vector 48 projectphase3.R7.ppp[1].ppp transmissionState:vector ETV
attr interpolationmode sample-hold
attr source transmissionStateChanged
attr title "tx state, vector"
vector 49 projectphase3.R12.ppp[0].ppp transmissionState:vector ETV
attr interpolationmode sample-hold
attr source transmissionStateChanged
attr title "tx state, vector"
vector 50 projectphase3.R12.ppp[1].ppp transmissionState:vector ETV
attr interpolationmode sample-hold
attr source transmissionStateChanged
attr title "tx state, vector"
vector 51 projectphase3.R8.ppp[0].ppp transmissionState:vector ETV
attr interpolationmode sample-hold
attr source transmissionStateChanged
attr title "tx state, vector"
vector 52 projectphase3.R8.ppp[1].ppp transmissionState:vector ETV
attr interpolationmode sample-hold
attr source transmissionStateChanged
attr title "tx state, vector"
vector 53 projectphase3.R8.ppp[2].ppp transmissionState:vector ETV
attr interpolationmode sample-hold
attr source transmissionStateChanged
attr title "tx state, vector"
vector 54 projectphase3.R9.ppp[0].ppp transmissionState:vector ETV
attr interpolationmode sample-hold
attr source transmissionStateChanged
attr title "tx state, vector"
vector 55 projectphase3.R9.ppp[1].ppp transmissionState:vector ETV
attr interpolationmode sample-hold
attr source transmissionStateChanged
attr title "tx state, vector"
vector 56 projectphase3.R10.ppp[0].ppp transmissionState:vector ETV
attr interpolationmode sample-hold
attr source transmissionStateChanged
attr title "tx state, vector"
vector 57 projectphase3.R10.ppp[1].ppp transmissionState:vector ETV
attr interpolationmode sample-hold
attr source transmissionStateChanged
attr title "tx state, vector"
vector 58 projectphase3.R11.ppp[0].ppp transmissionState:vector ETV
attr interpolationmode sample-hold
attr source transmissionStateChanged
attr title "tx state, vector"
vector 59 projectphase3.R11.ppp[1].ppp transmissionState:vector ETV
attr interpolationmode sample-hold
attr source transmissionStateChanged
attr title "tx state, vector"
vector 60 projectphase3.R12.ppp[1].ppp rcvdPkFromHl:vector(packetBytes) ETV
attr interpolationmode none
attr source packetReceivedFromUpper
attr title "packets received from higher layer, vector(packetBytes)"
vector 61 projectphase3.R12.ppp[1].ppp.queue packetPushed:vector(packetBytes) ETV
attr interpolationmode none
attr title "packet pushed, vector(packetBytes)"
vector 62 projectphase3.R12.ppp[1].ppp.queue queueLength:vector ETV
attr interpolationmode sample-hold
attr source "count(packetPushed) - count(packetPopped) - count(packetRemoved) - count(packetDropped)"
attr title "queue length, vector"
vector 63 projectphase3.R12.ppp[1].ppp.queue packetPopped:vector(packetBytes) ETV
attr interpolationmode none
attr title "packet popped, vector(packetBytes)"
vector 64 projectphase3.R12.ppp[1].ppp.queue queueingTime:vector ETV
attr interpolationmode none
attr source queueingTime(packetPopped)
attr title "queueing times, vector"
attr unit s
vector 65 projectphase3.R12.ppp[1].ppp txPk:vector(packetBytes) ETV
attr interpolationmode none
attr source packetSentToLower
attr title "packets transmitted, vector(packetBytes)"
vector 66 projectphase3.R9.ppp[1].ppp rcvdPkFromHl:vector(packetBytes) ETV
attr interpolationmode none
attr source packetReceivedFromUpper
attr title "packets received from higher layer, vector(packetBytes)"
vector 67 projectphase3.R9.ppp[1].ppp.queue packetPushed:vector(packetBytes) ETV
attr interpolationmode none
attr title "packet pushed, vector(packetBytes)"
vector 68 projectphase3.R9.ppp[1].ppp.queue queueLength:vector ETV
attr interpolationmode sample-hold
attr source "count(packetPushed) - count(packetPopped) - count(packetRemoved) - count(packetDropped)"
attr title "queue length, vector"
vector 69 projectphase3.R9.ppp[1].ppp.queue packetPopped:vector(packetBytes) ETV
attr interpolationmode none
attr title "packet popped, vector(packetBytes)"
vector 70 projectphase3.R9.ppp[1].ppp.queue queueingTime:vector ETV
attr interpolationmode none
attr source queueingTime(packetPopped)
attr title "queueing times, vector"
attr unit s
vector 71 projectphase3.R9.ppp[1].ppp txPk:vector(packetBytes) ETV
attr interpolationmode none
attr source packetSentToLower
attr title "packets transmitted, vector(packetBytes)"
vector 72 projectphase3.R5.ppp[0].ppp rcvdPkFromHl:vector(packetBytes) ETV
attr interpolationmode none
attr source packetReceivedFromUpper
attr title "packets received from higher layer, vector(packetBytes)"
vector 73 projectphase3.R5.ppp[0].ppp.queue packetPushed:vector(packetBytes) ETV
attr interpolationmode none
attr title "packet pushed, vector(packetBytes)"
vector 74 projectphase3.R5.ppp[0].ppp.queue queueLength:vector ETV
attr interpolationmode sample-hold
attr source "count(packetPushed) - count(packetPopped) - count(packetRemoved) - count(packetDropped)"
attr title "queue length, vector"
vector 75 projectphase3.R5.ppp[0].ppp.queue packetPopped:vector(packetBytes) ETV
attr interpolationmode none
attr title "packet popped, vector(packetBytes)"
vector 76 projectphase3.R5.ppp[0].ppp.queue queueingTime:vector ETV
attr interpolationmode none
attr source queueingTime(packetPopped)
attr title "queueing times, vector"
attr unit s
vector 77 projectphase3.R5.ppp[0].ppp txPk:vector(packetBytes) ETV
attr interpolationmode none
attr source packetSentToLower
attr title "packets transmitted, vector(packetBytes)"
vector 78 projectphase3.R8.ppp[1].ppp rcvdPkFromHl:vector(packetBytes) ETV
attr interpolationmode none
attr source packetReceivedFromUpper
attr title "packets received from higher layer, vector(packetBytes)"
vector 79 projectphase3.R8.ppp[1].ppp.queue packetPushed:vector(packetBytes) ETV
attr interpolationmode none
attr title "packet pushed, vector(packetBytes)"
vector 80 projectphase3.R8.ppp[1].ppp.queue queueLength:vector ETV
attr interpolationmode sample-hold
attr source "count(packetPushed) - count(packetPopped) - count(packetRemoved) - count(packetDropped)"
attr title "queue length, vector"
vector 81 projectphase3.R8.ppp[1].ppp.queue packetPopped:vector(packetBytes) ETV
attr interpolationmode none
attr title "packet popped, vector(packetBytes)"
vector 82 projectphase3.R8.ppp[1].ppp.queue queueingTime:vector ETV
attr interpolationmode none
attr source queueingTime(packetPopped)
attr title "queueing times, vector"
attr unit s
vector 83 projectphase3.R8.ppp[1].ppp txPk:vector(packetBytes) ETV
attr interpolationmode none
attr source packetSentToLower
attr title "packets transmitted, vector(packetBytes)"
vector 84 projectphase3.R2.eth[0].encap encapPk:vector(packetBytes) ETV
attr interpolationmode none
attr source encapPk
attr title "packets encapsulated, vector(packetBytes)"
vector 85 projectphase3.R2.eth[0].mac packetReceivedFromUpper:vector(packetBytes) ETV
attr interpolationmode none
attr source packetReceivedFromUpper
attr title "packet bytes from higher layer, vector(packetBytes)"
vector 86 projectphase3.R2.eth[0].mac.queue packetPushed:vector(packetBytes) ETV
attr interpolationmode none
attr source localSignal(packetPushed)
attr title "packets pushed, vector(packetBytes)"
vector 87 projectphase3.R2.eth[0].mac.queue queueLength:vector ETV
attr interpolationmode sample-hold
attr source "count(localSignal(packetPushed)) - count(localSignal(packetPopped)) - count(localSignal(packetRemoved)) - count(packetDropped)"
attr title "queue length, vector"
vector 88 projectphase3.R2.eth[0].mac.queue.classifier packetPushed:vector(packetBytes) ETV
attr interpolationmode none
attr title "packets pushed, vector(packetBytes)"
vector 89 projectphase3.R2.eth[0].mac.queue.dataQueue packetPushed:vector(packetBytes) ETV
attr interpolationmode none
attr title "packet pushed, vector(packetBytes)"
vector 90 projectphase3.R2.eth[0].mac.queue.dataQueue queueLength:vector ETV
attr interpolationmode sample-hold
attr source "count(packetPushed) - count(packetPopped) - count(packetRemoved) - count(packetDropped)"
attr title "queue length, vector"
vector 91 projectphase3.R2.eth[0].mac.queue.dataQueue packetPopped:vector(packetBytes) ETV
attr interpolationmode none
attr title "packet popped, vector(packetBytes)"
vector 92 projectphase3.R2.eth[0].mac.queue.dataQueue queueingTime:vector ETV
attr interpolationmode none
attr source queueingTime(packetPopped)
attr title "queueing times, vector"
attr unit s
vector 93 projectphase3.R2.eth[0].mac.queue queueingTime:vector ETV
attr interpolationmode none
attr source queueingTime(packetPopped)
attr title "queueing times, vector"
attr unit s
vector 94 projectphase3.R2.eth[0].mac.queue.scheduler packetPopped:vector(packetBytes) ETV
attr interpolationmode none
attr title "packets popped, vector(packetBytes)"
vector 95 projectphase3.R2.eth[0].mac.queue packetPopped:vector(packetBytes) ETV
attr interpolationmode none
attr source localSignal(packetPopped)
attr title "packets popped, vector(packetBytes)"
vector 96 projectphase3.R2.eth[0].mac txPk:vector(packetBytes) ETV
attr interpolationmode none
attr source packetSentToLower
attr title "packets transmitted, vector(packetBytes)"
vector 97 projectphase3.H1.eth[0].mac rxPkOk:vector(packetBytes) ETV
attr interpolationmode none
attr source rxPkOk
attr title "packets received OK, vector(packetBytes)"
vector 98 projectphase3.H1.eth[0].mac passedUpPk:vector(packetBytes) ETV
attr interpolationmode none
attr source packetSentToUpper
attr title "packets passed to higher layer, vector(packetBytes)"
vector 99 projectphase3.H1.eth[0].encap decapPk:vector(packetBytes) ETV
attr interpolationmode none
attr source decapPk
attr title "packets decapsulated, vector(packetBytes)"
vector 100 projectphase3.R11.ppp[0].ppp rcvdPkFromHl:vector(packetBytes) ETV
attr interpolationmode none
attr source packetReceivedFromUpper
attr title "packets received from higher layer, vector(packetBytes)"
vector 101 projectphase3.R11.ppp[0].ppp.queue packetPushed:vector(packetBytes) ETV
attr interpolationmode none
attr title "packet pushed, vector(packetBytes)"
vector 102 projectphase3.R11.ppp[0].ppp.queue queueLength:vector ETV
attr interpolationmode sample-hold
attr source "count(packetPushed) - count(packetPopped) - count(packetRemoved) - count(packetDropped)"
attr title "queue length, vector"
vector 103 projectphase3.R11.ppp[0].ppp.queue packetPopped:vector(packetBytes) ETV
attr interpolationmode none
attr title "packet popped, vector(packetBytes)"
vector 104 projectphase3.R11.ppp[0].ppp.queue queueingTime:vector ETV
attr interpolationmode none
attr source queueingTime(packetPopped)
attr title "queueing times, vector"
attr unit s
vector 105 projectphase3.R11.ppp[0].ppp txPk:vector(packetBytes) ETV
attr interpolationmode none
attr source packetSentToLower
attr title "packets transmitted, vector(packetBytes)"
vector 106 projectphase3.R5.ppp[1].ppp rcvdPkFromHl:vector(packetBytes) ETV
attr interpolationmode none
attr source packetReceivedFromUpper
attr title "packets received from higher layer, vector(packetBytes)"
vector 107 projectphase3.R5.ppp[1].ppp.queue packetPushed:vector(packetBytes) ETV
attr interpolationmode none
attr title "packet pushed, vector(packetBytes)"
vector 108 projectphase3.R5.ppp[1].ppp.queue queueLength:vector ETV
attr interpolationmode sample-hold
attr source "count(packetPushed) - count(packetPopped) - count(packetRemoved) - count(packetDropped)"
attr title "queue length, vector"
vector 109 projectphase3.R5.ppp[1].ppp.queue packetPopped:vector(packetBytes) ETV
attr interpolationmode none
attr title "packet popped, vector(packetBytes)"
vector 110 projectphase3.R5.ppp[1].ppp.queue queueingTime:vector ETV
attr interpolationmode none
attr source queueingTime(packetPopped)
attr title "queueing times, vector"
attr unit s
vector 111 projectphase3.R5.ppp[1].ppp txPk:vector(packetBytes) ETV
attr interpolationmode none
attr source packetSentToLower
attr title "packets transmitted, vector(packetBytes)"
vector 112 projectphase3.R4.ppp[1].ppp rcvdPkFromHl:vector(packetBytes) ETV
attr interpolationmode none
attr source packetReceivedFromUpper
attr title "packets received from higher layer, vector(packetBytes)"
vector 113 projectphase3.R4.ppp[1].ppp.queue packetPushed:vector(packetBytes) ETV
attr interpolationmode none
attr title "packet pushed, vector(packetBytes)"
vector 114 projectphase3.R4.ppp[1].ppp.queue queueLength:vector ETV
attr interpolationmode sample-hold
attr source "count(packetPushed) - count(packetPopped) - count(packetRemoved) - count(packetDropped)"
attr title "queue length, vector"
vector 115 projectphase3.R4.ppp[1].ppp.queue packetPopped:vector(packetBytes) ETV
attr interpolationmode none
attr title "packet popped, vector(packetBytes)"
vector 116 projectphase3.R4.ppp[1].ppp.queue queueingTime:vector ETV
attr interpolationmode none
attr source queueingTime(packetPopped)
attr title "queueing times, vector"
attr unit s
vector 117 projectphase3.R4.ppp[1].ppp txPk:vector(packetBytes) ETV
attr interpolationmode none
attr source packetSentToLower
attr title "packets transmitted, vector(packetBytes)"
vector 118 projectphase3.R6.ppp[1].ppp rxPkOk:vector(packetBytes) ETV
attr interpolationmode none
attr source rxPkOk
attr title "packets received OK, vector(packetBytes)"
vector 119 projectphase3.R6.ppp[1].ppp passedUpPk:vector(packetBytes) ETV
attr interpolationmode none
attr source packetSentToUpper
attr title "packets passed to higher layer, vector(packetBytes)"
vector 120 projectphase3.R8.ppp[2].ppp rcvdPkFromHl:vector(packetBytes) ETV
attr interpolationmode none
attr source packetReceivedFromUpper
attr title "packets received from higher layer, vector(packetBytes)"
vector 121 projectphase3.R8.ppp[2].ppp.queue packetPushed:vector(packetBytes) ETV
attr interpolationmode none
attr title "packet pushed, vector(packetBytes)"
vector 122 projectphase3.R8.ppp[2].ppp.queue queueLength:vector ETV
attr interpolationmode sample-hold
attr source "count(packetPushed) - count(packetPopped) - count(packetRemoved) - count(packetDropped)"
attr title "queue length, vector"
vector 123 projectphase3.R8.ppp[2].ppp.queue packetPopped:vector(packetBytes) ETV
attr interpolationmode none
attr title "packet popped, vector(packetBytes)"
vector 124 projectphase3.R8.ppp[2].ppp.queue queueingTime:vector ETV
attr interpolationmode none
attr source queueingTime(packetPopped)
attr title "queueing times, vector"
attr unit s
vector 125 projectphase3.R8.ppp[2].ppp txPk:vector(packetBytes) ETV
attr interpolationmode none
attr source packetSentToLower
attr title "packets transmitted, vector(packetBytes)"
vector 126 projectphase3.R2.ppp[1].ppp rcvdPkFromHl:vector(packetBytes) ETV
attr interpolationmode none
attr source packetReceivedFromUpper
attr title "packets received from higher layer, vector(packetBytes)"
vector 127 projectphase3.R2.ppp[1].ppp.queue packetPushed:vector(packetBytes) ETV
attr interpolationmode none
attr title "packet pushed, vector(packetBytes)"
vector 128 projectphase3.R2.ppp[1].ppp.queue queueLength:vector ETV
attr interpolationmode sample-hold
attr source "count(packetPushed) - count(packetPopped) - count(packetRemoved) - count(packetDropped)"
attr title "queue length, vector"
vector 129 projectphase3.R2.ppp[1].ppp.queue packetPopped:vector(packetBytes) ETV
attr interpolationmode none
attr title "packet popped, vector(packetBytes)"
vector 130 projectphase3.R2.ppp[1].ppp.queue queueingTime:vector ETV
attr interpolationmode none
attr source queueingTime(packetPopped)
attr title "queueing times, vector"
attr unit s
vector 131 projectphase3.R2.ppp[1].ppp txPk:vector(packetBytes) ETV
attr interpolationmode none
attr source packetSentToLower
attr title "packets transmitted, vector(packetBytes)"
vector 132 projectphase3.R9.eth[0].encap encapPk:vector(packetBytes) ETV
attr interpolationmode none
attr source encapPk
attr title "packets encapsulated, vector(packetBytes)"
vector 133 projectphase3.R9.eth[0].mac packetReceivedFromUpper:vector(packetBytes) ETV
attr interpolationmode none
attr source packetReceivedFromUpper
attr title "packet bytes from higher layer, vector(packetBytes)"
vector 134 projectphase3.R9.eth[0].mac.queue packetPushed:vector(packetBytes) ETV
attr interpolationmode none
attr source localSignal(packetPushed)
attr title "packets pushed, vector(packetBytes)"
vector 135 projectphase3.R9.eth[0].mac.queue queueLength:vector ETV
attr interpolationmode sample-hold
attr source "count(localSignal(packetPushed)) - count(localSignal(packetPopped)) - count(localSignal(packetRemoved)) - count(packetDropped)"
attr title "queue length, vector"
vector 136 projectphase3.R9.eth[0].mac.queue.classifier packetPushed:vector(packetBytes) ETV
attr interpolationmode none
attr title "packets pushed, vector(packetBytes)"
vector 137 projectphase3.R9.eth[0].mac.queue.dataQueue packetPushed:vector(packetBytes) ETV
attr interpolationmode none
attr title "packet pushed, vector(packetBytes)"
vector 138 projectphase3.R9.eth[0].mac.queue.dataQueue queueLength:vector ETV
attr interpolationmode sample-hold
attr source "count(packetPushed) - count(packetPopped) - count(packetRemoved) - count(packetDropped)"
attr title "queue length, vector"
vector 139 projectphase3.R9.eth[0].mac.queue.dataQueue packetPopped:vector(packetBytes) ETV
attr interpolationmode none
attr title "packet popped, vector(packetBytes)"
vector 140 projectphase3.R9.eth[0].mac.queue.dataQueue queueingTime:vector ETV
attr interpolationmode none
attr source queueingTime(packetPopped)
attr title "queueing times, vector"
attr unit s
vector 141 projectphase3.R9.eth[0].mac.queue queueingTime:vector ETV
attr interpolationmode none
attr source queueingTime(packetPopped)
attr title "queueing times, vector"
attr unit s
vector 142 projectphase3.R9.eth[0].mac.queue.scheduler packetPopped:vector(packetBytes) ETV
attr interpolationmode none
attr title "packets popped, vector(packetBytes)"
vector 143 projectphase3.R9.eth[0].mac.queue packetPopped:vector(packetBytes) ETV
attr interpolationmode none
attr source localSignal(packetPopped)
attr title "packets popped, vector(packetBytes)"
vector 144 projectphase3.R9.eth[0].mac txPk:vector(packetBytes) ETV
attr interpolationmode none
attr source packetSentToLower
attr title "packets transmitted, vector(packetBytes)"
vector 145 projectphase3.H2.eth[0].mac rxPkOk:vector(packetBytes) ETV
attr interpolationmode none
attr source rxPkOk
attr title "packets received OK, vector(packetBytes)"
vector 146 projectphase3.H2.eth[0].mac passedUpPk:vector(packetBytes) ETV
attr interpolationmode none
attr source packetSentToUpper
attr title "packets passed to higher layer, vector(packetBytes)"
vector 147 projectphase3.H2.eth[0].encap decapPk:vector(packetBytes) ETV
attr interpolationmode none
attr source decapPk
attr title "packets decapsulated, vector(packetBytes)"
vector 148 projectphase3.R4.ppp[0].ppp rcvdPkFromHl:vector(packetBytes) ETV
attr interpolationmode none
attr source packetReceivedFromUpper
attr title "packets received from higher layer, vector(packetBytes)"
vector 149 projectphase3.R4.ppp[0].ppp.queue packetPushed:vector(packetBytes) ETV
attr interpolationmode none
attr title "packet pushed, vector(packetBytes)"
vector 150 projectphase3.R4.ppp[0].ppp.queue queueLength:vector ETV
attr interpolationmode sample-hold
attr source "count(packetPushed) - count(packetPopped) - count(packetRemoved) - count(packetDropped)"
attr title "queue length, vector"
vector 151 projectphase3.R4.ppp[0].ppp.queue packetPopped:vector(packetBytes) ETV
attr interpolationmode none
attr title "packet popped, vector(packetBytes)"
vector 152 projectphase3.R4.ppp[0].ppp.queue queueingTime:vector ETV
attr interpolationmode none
attr source queueingTime(packetPopped)
attr title "queueing times, vector"
attr unit s
vector 153 projectphase3.R4.ppp[0].ppp txPk:vector(packetBytes) ETV
attr interpolationmode none
attr source packetSentToLower
attr title "packets transmitted, vector(packetBytes)"
vector 154 projectphase3.R3.ppp[0].ppp rcvdPkFromHl:vector(packetBytes) ETV
attr interpolationmode none
attr source packetReceivedFromUpper
attr title "packets received from higher layer, vector(packetBytes)"
vector 155 projectphase3.R3.ppp[0].ppp.queue packetPushed:vector(packetBytes) ETV
attr interpolationmode none
attr title "packet pushed, vector(packetBytes)"
vector 156 projectphase3.R3.ppp[0].ppp.queue queueLength:vector ETV
attr interpolationmode sample-hold
attr source "count(packetPushed) - count(packetPopped) - count(packetRemoved) - count(packetDropped)"
attr title "queue length, vector"
vector 157 projectphase3.R3.ppp[0].ppp.queue packetPopped:vector(packetBytes) ETV
attr interpolationmode none
attr title "packet popped, vector(packetBytes)"
vector 158 projectphase3.R3.ppp[0].ppp.queue queueingTime:vector ETV
attr interpolationmode none
attr source queueingTime(packetPopped)
attr title "queueing times, vector"
attr unit s
vector 159 projectphase3.R3.ppp[0].ppp txPk:vector(packetBytes) ETV
attr interpolationmode none
attr source packetSentToLower
attr title "packets transmitted, vector(packetBytes)"
vector 160 projectphase3.R6.ppp[1].ppp rcvdPkFromHl:vector(packetBytes) ETV
attr interpolationmode none
attr source packetReceivedFromUpper
attr title "packets received from higher layer, vector(packetBytes)"
vector 161 projectphase3.R6.ppp[1].ppp.queue packetPushed:vector(packetBytes) ETV
attr interpolationmode none
attr title "packet pushed, vector(packetBytes)"
vector 162 projectphase3.R6.ppp[1].ppp.queue queueLength:vector ETV
attr interpolationmode sample-hold
attr source "count(packetPushed) - count(packetPopped) - count(packetRemoved) - count(packetDropped)"
attr title "queue length, vector"
vector 163 projectphase3.R6.ppp[1].ppp.queue packetPopped:vector(packetBytes) ETV
attr interpolationmode none
attr title "packet popped, vector(packetBytes)"
vector 164 projectphase3.R6.ppp[1].ppp.queue queueingTime:vector ETV
attr interpolationmode none
attr source queueingTime(packetPopped)
attr title "queueing times, vector"
attr unit s
vector 165 projectphase3.R6.ppp[1].ppp txPk:vector(packetBytes) ETV
attr interpolationmode none
attr source packetSentToLower
attr title "packets transmitted, vector(packetBytes)"
vector 166 projectphase3.R6.ppp[0].ppp rcvdPkFromHl:vector(packetBytes) ETV
attr interpolationmode none
attr source packetReceivedFromUpper
attr title "packets received from higher layer, vector(packetBytes)"
vector 167 projectphase3.R6.ppp[0].ppp.queue packetPushed:vector(packetBytes) ETV
attr interpolationmode none
attr title "packet pushed, vector(packetBytes)"
vector 168 projectphase3.R6.ppp[0].ppp.queue queueLength:vector ETV
attr interpolationmode sample-hold
attr source "count(packetPushed) - count(packetPopped) - count(packetRemoved) - count(packetDropped)"
attr title "queue length, vector"
vector 169 projectphase3.R6.ppp[0].ppp.queue packetPopped:vector(packetBytes) ETV
attr interpolationmode none
attr title "packet popped, vector(packetBytes)"
vector 170 projectphase3.R6.ppp[0].ppp.queue queueingTime:vector ETV
attr interpolationmode none
attr source queueingTime(packetPopped)
attr title "queueing times, vector"
attr unit s
vector 171 projectphase3.R6.ppp[0].ppp txPk:vector(packetBytes) ETV
attr interpolationmode none
attr source packetSentToLower
attr title "packets transmitted, vector(packetBytes)"
vector 172 projectphase3.R6.ppp[2].ppp rcvdPkFromHl:vector(packetBytes) ETV
attr interpolationmode none
attr source packetReceivedFromUpper
attr title "packets received from higher layer, vector(packetBytes)"
vector 173 projectphase3.R6.ppp[2].ppp.queue packetPushed:vector(packetBytes) ETV
attr interpolationmode none
attr title "packet pushed, vector(packetBytes)"
vector 174 projectphase3.R6.ppp[2].ppp.queue queueLength:vector ETV
attr interpolationmode sample-hold
attr source "count(packetPushed) - count(packetPopped) - count(packetRemoved) - count(packetDropped)"
attr title "queue length, vector"
vector 175 projectphase3.R6.ppp[2].ppp.queue packetPopped:vector(packetBytes) ETV
attr interpolationmode none
attr title "packet popped, vector(packetBytes)"
vector 176 projectphase3.R6.ppp[2].ppp.queue queueingTime:vector ETV
attr interpolationmode none
attr source queueingTime(packetPopped)
attr title "queueing times, vector"
attr unit s
vector 177 projectphase3.R6.ppp[2].ppp txPk:vector(packetBytes) ETV
attr interpolationmode none
attr source packetSentToLower
attr title "packets transmitted, vector(packetBytes)"
vector 178 projectphase3.R9.ppp[0].ppp rcvdPkFromHl:vector(packetBytes) ETV
attr interpolationmode none
attr source packetReceivedFromUpper
attr title "packets received from higher layer, vector(packetBytes)"
vector 179 projectphase3.R9.ppp[0].ppp.queue packetPushed:vector(packetBytes) ETV
attr interpolationmode none
attr title "packet pushed, vector(packetBytes)"
vector 180 projectphase3.R9.ppp[0].ppp.queue queueLength:vector ETV
attr interpolationmode sample-hold
attr source "count(packetPushed) - count(packetPopped) - count(packetRemoved) - count(packetDropped)"
attr title "queue length, vector"
vector 181 projectphase3.R9.ppp[0].ppp.queue packetPopped:vector(packetBytes) ETV
attr interpolationmode none
attr title "packet popped, vector(packetBytes)"
vector 182 projectphase3.R9.ppp[0].ppp.queue queueingTime:vector ETV
attr interpolationmode none
attr source queueingTime(packetPopped)
attr title "queueing times, vector"
attr unit s
vector 183 projectphase3.R9.ppp[0].ppp txPk:vector(packetBytes) ETV
attr interpolationmode none
attr source packetSentToLower
attr title "packets transmitted, vector(packetBytes)"
vector 184 projectphase3.R10.ppp[0].ppp rcvdPkFromHl:vector(packetBytes) ETV
attr interpolationmode none
attr source packetReceivedFromUpper
attr title "packets received from higher layer, vector(packetBytes)"
vector 185 projectphase3.R10.ppp[0].ppp.queue packetPushed:vector(packetBytes) ETV
attr interpolationmode none
attr title "packet pushed, vector(packetBytes)"
vector 186 projectphase3.R10.ppp[0].ppp.queue queueLength:vector ETV
attr interpolationmode sample-hold
attr source "count(packetPushed) - count(packetPopped) - count(packetRemoved) - count(packetDropped)"
attr title "queue length, vector"
vector 187 projectphase3.R10.ppp[0].ppp.queue packetPopped:vector(packetBytes) ETV
attr interpolationmode none
attr title "packet popped, vector(packetBytes)"
vector 188 projectphase3.R10.ppp[0].ppp.queue queueingTime:vector ETV
attr interpolationmode none
attr source queueingTime(packetPopped)
attr title "queueing times, vector"
attr unit s
vector 189 projectphase3.R10.ppp[0].ppp txPk:vector(packetBytes) ETV
attr interpolationmode none
attr source packetSentToLower
attr title "packets transmitted, vector(packetBytes)"
vector 190 projectphase3.R11.ppp[1].ppp rcvdPkFromHl:vector(packetBytes) ETV
attr interpolationmode none
attr source packetReceivedFromUpper
attr title "packets received from higher layer, vector(packetBytes)"
vector 191 projectphase3.R11.ppp[1].ppp.queue packetPushed:vector(packetBytes) ETV
attr interpolationmode none
attr title "packet pushed, vector(packetBytes)"
vector 192 projectphase3.R11.ppp[1].ppp.queue queueLength:vector ETV
attr interpolationmode sample-hold
attr source "count(packetPushed) - count(packetPopped) - count(packetRemoved) - count(packetDropped)"
attr title "queue length, vector"
vector 193 projectphase3.R11.ppp[1].ppp.queue packetPopped:vector(packetBytes) ETV
attr interpolationmode none
attr title "packet popped, vector(packetBytes)"
vector 194 projectphase3.R11.ppp[1].ppp.queue queueingTime:vector ETV
attr interpolationmode none
attr source queueingTime(packetPopped)
attr title "queueing times, vector"
attr unit s
vector 195 projectphase3.R11.ppp[1].ppp txPk:vector(packetBytes) ETV
attr interpolationmode none
attr source packetSentToLower
attr title "packets transmitted, vector(packetBytes)"
vector 196 projectphase3.R8.ppp[0].ppp rcvdPkFromHl:vector(packetBytes) ETV
attr interpolationmode none
attr source packetReceivedFromUpper
attr title "packets received from higher layer, vector(packetBytes)"
vector 197 projectphase3.R8.ppp[0].ppp.queue packetPushed:vector(packetBytes) ETV
attr interpolationmode none
attr title "packet pushed, vector(packetBytes)"
vector 198 projectphase3.R8.ppp[0].ppp.queue queueLength:vector ETV
attr interpolationmode sample-hold
attr source "count(packetPushed) - count(packetPopped) - count(packetRemoved) - count(packetDropped)"
attr title "queue length, vector"
vector 199 projectphase3.R8.ppp[0].ppp.queue packetPopped:vector(packetBytes) ETV
attr interpolationmode none
attr title "packet popped, vector(packetBytes)"
vector 200 projectphase3.R8.ppp[0].ppp.queue queueingTime:vector ETV
attr interpolationmode none
attr source queueingTime(packetPopped)
attr title "queueing times, vector"
attr unit s
vector 201 projectphase3.R8.ppp[0].ppp txPk:vector(packetBytes) ETV
attr interpolationmode none
attr source packetSentToLower
attr title "packets transmitted, vector(packetBytes)"
vector 202 projectphase3.R4.ppp[2].ppp rcvdPkFromHl:vector(packetBytes) ETV
attr interpolationmode none
attr source packetReceivedFromUpper
attr title "packets received from higher layer, vector(packetBytes)"
vector 203 projectphase3.R4.ppp[2].ppp.queue packetPushed:vector(packetBytes) ETV
attr interpolationmode none
attr title "packet pushed, vector(packetBytes)"
vector 204 projectphase3.R4.ppp[2].ppp.queue queueLength:vector ETV
attr interpolationmode sample-hold
attr source "count(packetPushed) - count(packetPopped) - count(packetRemoved) - count(packetDropped)"
attr title "queue length, vector"
vector 205 projectphase3.R4.ppp[2].ppp.queue packetPopped:vector(packetBytes) ETV
attr interpolationmode none
attr title "packet popped, vector(packetBytes)"
vector 206 projectphase3.R4.ppp[2].ppp.queue queueingTime:vector ETV
attr interpolationmode none
attr source queueingTime(packetPopped)
attr title "queueing times, vector"
attr unit s
vector 207 projectphase3.R4.ppp[2].ppp txPk:vector(packetBytes) ETV
attr interpolationmode none
attr source packetSentToLower
attr title "packets transmitted, vector(packetBytes)"
vector 208 projectphase3.R2.ppp[0].ppp rcvdPkFromHl:vector(packetBytes) ETV
attr interpolationmode none
attr source packetReceivedFromUpper
attr title "packets received from higher layer, vector(packetBytes)"
vector 209 projectphase3.R2.ppp[0].ppp.queue packetPushed:vector(packetBytes) ETV
attr interpolationmode none
attr title "packet pushed, vector(packetBytes)"
vector 210 projectphase3.R2.ppp[0].ppp.queue queueLength:vector ETV
attr interpolationmode sample-hold
attr source "count(packetPushed) - count(packetPopped) - count(packetRemoved) - count(packetDropped)"
attr title "queue length, vector"
vector 211 projectphase3.R2.ppp[0].ppp.queue packetPopped:vector(packetBytes) ETV
attr interpolationmode none
attr title "packet popped, vector(packetBytes)"
vector 212 projectphase3.R2.ppp[0].ppp.queue queueingTime:vector ETV
attr interpolationmode none
attr source queueingTime(packetPopped)
attr title "queueing times, vector"
attr unit s
vector 213 projectphase3.R2.ppp[0].ppp txPk:vector(packetBytes) ETV
attr interpolationmode none
attr source packetSentToLower
attr title "packets transmitted, vector(packetBytes)"
vector 214 projectphase3.R8.ppp[2].ppp rxPkOk:vector(packetBytes) ETV
attr interpolationmode none
attr source rxPkOk
attr title "packets received OK, vector(packetBytes)"
vector 215 projectphase3.R8.ppp[2].ppp passedUpPk:vector(packetBytes) ETV
attr interpolationmode none
attr source packetSentToUpper
attr title "packets passed to higher layer, vector(packetBytes)"
vector 216 projectphase3.R4.ppp[2].ppp rxPkOk:vector(packetBytes) ETV
attr interpolationmode none
attr source rxPkOk
attr title "packets received OK, vector(packetBytes)"
vector 217 projectphase3.R4.ppp[2].ppp passedUpPk:vector(packetBytes) ETV
attr interpolationmode none
attr source packetSentToUpper
attr title "packets passed to higher layer, vector(packetBytes)"
vector 218 projectphase3.R1.ppp[1].ppp rcvdPkFromHl:vector(packetBytes) ETV
attr interpolationmode none
attr source packetReceivedFromUpper
attr title "packets received from higher layer, vector(packetBytes)"
vector 219 projectphase3.R1.ppp[1].ppp.queue packetPushed:vector(packetBytes) ETV
attr interpolationmode none
attr title "packet pushed, vector(packetBytes)"
vector 220 projectphase3.R1.ppp[1].ppp.queue queueLength:vector ETV
attr interpolationmode sample-hold
attr source "count(packetPushed) - count(packetPopped) - count(packetRemoved) - count(packetDropped)"
attr title "queue length, vector"
vector 221 projectphase3.R1.ppp[1].ppp.queue packetPopped:vector(packetBytes) ETV
attr interpolationmode none
attr title "packet popped, vector(packetBytes)"
vector 222 projectphase3.R1.ppp[1].ppp.queue queueingTime:vector ETV
attr interpolationmode none
attr source queueingTime(packetPopped)
attr title "queueing times, vector"
attr unit s
vector 223 projectphase3.R1.ppp[1].ppp txPk:vector(packetBytes) ETV
attr interpolationmode none
attr source packetSentToLower
attr title "packets transmitted, vector(packetBytes)"
vector 224 projectphase3.R10.ppp[0].ppp rxPkOk:vector(packetBytes) ETV
attr interpolationmode none
attr source rxPkOk
attr title "packets received OK, vector(packetBytes)"
vector 225 projectphase3.R10.ppp[0].ppp passedUpPk:vector(packetBytes) ETV
attr interpolationmode none
attr source packetSentToUpper
attr title "packets passed to higher layer, vector(packetBytes)"
vector 226 projectphase3.R1.ppp[0].ppp rcvdPkFromHl:vector(packetBytes) ETV
attr interpolationmode none
attr source packetReceivedFromUpper
attr title "packets received from higher layer, vector(packetBytes)"
vector 227 projectphase3.R1.ppp[0].ppp.queue packetPushed:vector(packetBytes) ETV
attr interpolationmode none
attr title "packet pushed, vector(packetBytes)"
vector 228 projectphase3.R1.ppp[0].ppp.queue queueLength:vector ETV
attr interpolationmode sample-hold
attr source "count(packetPushed) - count(packetPopped) - count(packetRemoved) - count(packetDropped)"
attr title "queue length, vector"
vector 229 projectphase3.R1.ppp[0].ppp.queue packetPopped:vector(packetBytes) ETV
attr interpolationmode none
attr title "packet popped, vector(packetBytes)"
vector 230 projectphase3.R1.ppp[0].ppp.queue queueingTime:vector ETV
attr interpolationmode none
attr source queueingTime(packetPopped)
attr title "queueing times, vector"
attr unit s
vector 231 projectphase3.R1.ppp[0].ppp txPk:vector(packetBytes) ETV
attr interpolationmode none
attr source packetSentToLower
attr title "packets transmitted, vector(packetBytes)"
vector 232 projectphase3.R10.ppp[1].ppp rcvdPkFromHl:vector(packetBytes) ETV
attr interpolationmode none
attr source packetReceivedFromUpper
attr title "packets received from higher layer, vector(packetBytes)"
vector 233 projectphase3.R10.ppp[1].ppp.queue packetPushed:vector(packetBytes) ETV
attr interpolationmode none
attr title "packet pushed, vector(packetBytes)"
vector 234 projectphase3.R10.ppp[1].ppp.queue queueLength:vector ETV
attr interpolationmode sample-hold
attr source "count(packetPushed) - count(packetPopped) - count(packetRemoved) - count(packetDropped)"
attr title "queue length, vector"
vector 235 projectphase3.R10.ppp[1].ppp.queue packetPopped:vector(packetBytes) ETV
attr interpolationmode none
attr title "packet popped, vector(packetBytes)"
vector 236 projectphase3.R10.ppp[1].ppp.queue queueingTime:vector ETV
attr interpolationmode none
attr source queueingTime(packetPopped)
attr title "queueing times, vector"
attr unit s
vector 237 projectphase3.R10.ppp[1].ppp txPk:vector(packetBytes) ETV
attr interpolationmode none
attr source packetSentToLower
attr title "packets transmitted, vector(packetBytes)"
vector 238 projectphase3.R7.ppp[0].ppp rxPkOk:vector(packetBytes) ETV
attr interpolationmode none
attr source rxPkOk
attr title "packets received OK, vector(packetBytes)"
vector 239 projectphase3.R7.ppp[0].ppp passedUpPk:vector(packetBytes) ETV
attr interpolationmode none
attr source packetSentToUpper
attr title "packets passed to higher layer, vector(packetBytes)"
vector 240 projectphase3.R3.ppp[1].ppp rxPkOk:vector(packetBytes) ETV
attr interpolationmode none
attr source rxPkOk
attr title "packets received OK, vector(packetBytes)"
vector 241 projectphase3.R3.ppp[1].ppp passedUpPk:vector(packetBytes) ETV
attr interpolationmode none
attr source packetSentToUpper
attr title "packets passed to higher layer, vector(packetBytes)"
vector 242 projectphase3.R7.ppp[1].ppp rcvdPkFromHl:vector(packetBytes) ETV
attr interpolationmode none
attr source packetReceivedFromUpper
attr title "packets received from higher layer, vector(packetBytes)"
vector 243 projectphase3.R7.ppp[1].ppp.queue packetPushed:vector(packetBytes) ETV
attr interpolationmode none
attr title "packet pushed, vector(packetBytes)"
vector 244 projectphase3.R7.ppp[1].ppp.queue queueLength:vector ETV
attr interpolationmode sample-hold
attr source "count(packetPushed) - count(packetPopped) - count(packetRemoved) - count(packetDropped)"
attr title "queue length, vector"
vector 245 projectphase3.R7.ppp[1].ppp.queue packetPopped:vector(packetBytes) ETV
attr interpolationmode none
attr title "packet popped, vector(packetBytes)"
vector 246 projectphase3.R7.ppp[1].ppp.queue queueingTime:vector ETV
attr interpolationmode none
attr source queueingTime(packetPopped)
attr title "queueing times, vector"
attr unit s
vector 247 projectphase3.R7.ppp[1].ppp txPk:vector(packetBytes) ETV
attr interpolationmode none
attr source packetSentToLower
attr title "packets transmitted, vector(packetBytes)"
vector 248 projectphase3.R5.ppp[2].ppp rcvdPkFromHl:vector(packetBytes) ETV
attr interpolationmode none
attr source packetReceivedFromUpper
attr title "packets received from higher layer, vector(packetBytes)"
vector 249 projectphase3.R5.ppp[2].ppp.queue packetPushed:vector(packetBytes) ETV
attr interpolationmode none
attr title "packet pushed, vector(packetBytes)"
vector 250 projectphase3.R5.ppp[2].ppp.queue queueLength:vector ETV
attr interpolationmode sample-hold
attr source "count(packetPushed) - count(packetPopped) - count(packetRemoved) - count(packetDropped)"
attr title "queue length, vector"
vector 251 projectphase3.R5.ppp[2].ppp.queue packetPopped:vector(packetBytes) ETV
attr interpolationmode none
attr title "packet popped, vector(packetBytes)"
vector 252 projectphase3.R5.ppp[2].ppp.queue queueingTime:vector ETV
attr interpolationmode none
attr source queueingTime(packetPopped)
attr title "queueing times, vector"
attr unit s
vector 253 projectphase3.R5.ppp[2].ppp txPk:vector(packetBytes) ETV
attr interpolationmode none
attr source packetSentToLower
attr title "packets transmitted, vector(packetBytes)"
vector 254 projectphase3.R9.ppp[1].ppp rxPkOk:vector(packetBytes) ETV
attr interpolationmode none
attr source rxPkOk
attr title "packets received OK, vector(packetBytes)"
vector 255 projectphase3.R9.ppp[1].ppp passedUpPk:vector(packetBytes) ETV
attr interpolationmode none
attr source packetSentToUpper
attr title "packets passed to higher layer, vector(packetBytes)"
vector 256 projectphase3.R4.ppp[0].ppp rxPkOk:vector(packetBytes) ETV
attr interpolationmode none
attr source rxPkOk
attr title "packets received OK, vector(packetBytes)"
vector 257 projectphase3.R4.ppp[0].ppp passedUpPk:vector(packetBytes) ETV
attr interpolationmode none
attr source packetSentToUpper
attr title "packets passed to higher layer, vector(packetBytes)"
vector 258 projectphase3.R12.ppp[0].ppp rcvdPkFromHl:vector(packetBytes) ETV
attr interpolationmode none
attr source packetReceivedFromUpper
attr title "packets received from higher layer, vector(packetBytes)"
vector 259 projectphase3.R12.ppp[0].ppp.queue packetPushed:vector(packetBytes) ETV
attr interpolationmode none
attr title "packet pushed, vector(packetBytes)"
vector 260 projectphase3.R12.ppp[0].ppp.queue queueLength:vector ETV
attr interpolationmode sample-hold
attr source "count(packetPushed) - count(packetPopped) - count(packetRemoved) - count(packetDropped)"
attr title "queue length, vector"
vector 261 projectphase3.R12.ppp[0].ppp.queue packetPopped:vector(packetBytes) ETV
attr interpolationmode none
attr title "packet popped, vector(packetBytes)"
vector 262 projectphase3.R12.ppp[0].ppp.queue queueingTime:vector ETV
attr interpolationmode none
attr source queueingTime(packetPopped)
attr title "queueing times, vector"
attr unit s
vector 263 projectphase3.R12.ppp[0].ppp txPk:vector(packetBytes) ETV
attr interpolationmode none
attr source packetSentToLower
attr title "packets transmitted, vector(packetBytes)"
vector 264 projectphase3.R2.ppp[1].ppp rxPkOk:vector(packetBytes) ETV
attr interpolationmode none
attr source rxPkOk
attr title "packets received OK, vector(packetBytes)"
vector 265 projectphase3.R2.ppp[1].ppp passedUpPk:vector(packetBytes) ETV
attr interpolationmode none
attr source packetSentToUpper
attr title "packets passed to higher layer, vector(packetBytes)"
vector 266 projectphase3.R5.ppp[2].ppp rxPkOk:vector(packetBytes) ETV
attr interpolationmode none
attr source rxPkOk
attr title "packets received OK, vector(packetBytes)"
vector 267 projectphase3.R5.ppp[2].ppp passedUpPk:vector(packetBytes) ETV
attr interpolationmode none
attr source packetSentToUpper
attr title "packets passed to higher layer, vector(packetBytes)"
vector 268 projectphase3.R12.ppp[1].ppp rxPkOk:vector(packetBytes) ETV
attr interpolationmode none
attr source rxPkOk
attr title "packets received OK, vector(packetBytes)"
vector 269 projectphase3.R12.ppp[1].ppp passedUpPk:vector(packetBytes) ETV
attr interpolationmode none
attr source packetSentToUpper
attr title "packets passed to higher layer, vector(packetBytes)"
vector 270 projectphase3.R7.ppp[0].ppp rcvdPkFromHl:vector(packetBytes) ETV
attr interpolationmode none
attr source packetReceivedFromUpper
attr title "packets received from higher layer, vector(packetBytes)"
vector 271 projectphase3.R7.ppp[0].ppp.queue packetPushed:vector(packetBytes) ETV
attr interpolationmode none
attr title "packet pushed, vector(packetBytes)"
vector 272 projectphase3.R7.ppp[0].ppp.queue queueLength:vector ETV
attr interpolationmode sample-hold
attr source "count(packetPushed) - count(packetPopped) - count(packetRemoved) - count(packetDropped)"
attr title "queue length, vector"
vector 273 projectphase3.R7.ppp[0].ppp.queue packetPopped:vector(packetBytes) ETV
attr interpolationmode none
attr title "packet popped, vector(packetBytes)"
vector 274 projectphase3.R7.ppp[0].ppp.queue queueingTime:vector ETV
attr interpolationmode none
attr source queueingTime(packetPopped)
attr title "queueing times, vector"
attr unit s
vector 275 projectphase3.R7.ppp[0].ppp txPk:vector(packetBytes) ETV
attr interpolationmode none
attr source packetSentToLower
attr title "packets transmitted, vector(packetBytes)"
vector 276 projectphase3.R8.ppp[0].ppp rxPkOk:vector(packetBytes) ETV
attr interpolationmode none
attr source rxPkOk
attr title "packets received OK, vector(packetBytes)"
vector 277 projectphase3.R8.ppp[0].ppp passedUpPk:vector(packetBytes) ETV
attr interpolationmode none
attr source packetSentToUpper
attr title "packets passed to higher layer, vector(packetBytes)"
vector 278 projectphase3.R11.ppp[1].ppp rxPkOk:vector(packetBytes) ETV
attr interpolationmode none
attr source rxPkOk
attr title "packets received OK, vector(packetBytes)"
vector 279 projectphase3.R11.ppp[1].ppp passedUpPk:vector(packetBytes) ETV
attr interpolationmode none
attr source packetSentToUpper
attr title "packets passed to higher layer, vector(packetBytes)"
vector 280 projectphase3.R3.ppp[1].ppp rcvdPkFromHl:vector(packetBytes) ETV
attr interpolationmode none
attr source packetReceivedFromUpper
attr title "packets received from higher layer, vector(packetBytes)"
vector 281 projectphase3.R3.ppp[1].ppp.queue packetPushed:vector(packetBytes) ETV
attr interpolationmode none
attr title "packet pushed, vector(packetBytes)"
vector 282 projectphase3.R3.ppp[1].ppp.queue queueLength:vector ETV
attr interpolationmode sample-hold
attr source "count(packetPushed) - count(packetPopped) - count(packetRemoved) - count(packetDropped)"
attr title "queue length, vector"
vector 283 projectphase3.R3.ppp[1].ppp.queue packetPopped:vector(packetBytes) ETV
attr interpolationmode none
attr title "packet popped, vector(packetBytes)"
vector 284 projectphase3.R3.ppp[1].ppp.queue queueingTime:vector ETV
attr interpolationmode none
attr source queueingTime(packetPopped)
attr title "queueing times, vector"
attr unit s
vector 285 projectphase3.R3.ppp[1].ppp txPk:vector(packetBytes) ETV
attr interpolationmode none
attr source packetSentToLower
attr title "packets transmitted, vector(packetBytes)"
vector 286 projectphase3.R8.ppp[1].ppp rxPkOk:vector(packetBytes) ETV
attr interpolationmode none
attr source rxPkOk
attr title "packets received OK, vector(packetBytes)"
vector 287 projectphase3.R8.ppp[1].ppp passedUpPk:vector(packetBytes) ETV
attr interpolationmode none
attr source packetSentToUpper
attr title "packets passed to higher layer, vector(packetBytes)"
vector 288 projectphase3.R9.ppp[0].ppp rxPkOk:vector(packetBytes) ETV
attr interpolationmode none
attr source rxPkOk
attr title "packets received OK, vector(packetBytes)"
vector 289 projectphase3.R9.ppp[0].ppp passedUpPk:vector(packetBytes) ETV
attr interpolationmode none
attr source packetSentToUpper
attr title "packets passed to higher layer, vector(packetBytes)"
vector 290 projectphase3.R6.ppp[2].ppp rxPkOk:vector(packetBytes) ETV
attr interpolationmode none
attr source rxPkOk
attr title "packets received OK, vector(packetBytes)"
vector 291 projectphase3.R6.ppp[2].ppp passedUpPk:vector(packetBytes) ETV
attr interpolationmode none
attr source packetSentToUpper
attr title "packets passed to higher layer, vector(packetBytes)"
vector 292 projectphase3.R5.ppp[0].ppp rxPkOk:vector(packetBytes) ETV
attr interpolationmode none
attr source rxPkOk
attr title "packets received OK, vector(packetBytes)"
vector 293 projectphase3.R5.ppp[0].ppp passedUpPk:vector(packetBytes) ETV
attr interpolationmode none
attr source packetSentToUpper
attr title "packets passed to higher layer, vector(packetBytes)"
vector 294 projectphase3.R1.ppp[0].ppp rxPkOk:vector(packetBytes) ETV
attr interpolationmode none
attr source rxPkOk
attr title "packets received OK, vector(packetBytes)"
vector 295 projectphase3.R1.ppp[0].ppp passedUpPk:vector(packetBytes) ETV
attr interpolationmode none
attr source packetSentToUpper
attr title "packets passed to higher layer, vector(packetBytes)"
vector 296 projectphase3.R10.ppp[1].ppp rxPkOk:vector(packetBytes) ETV
attr interpolationmode none
attr source rxPkOk
attr title "packets received OK, vector(packetBytes)"
vector 297 projectphase3.R10.ppp[1].ppp passedUpPk:vector(packetBytes) ETV
attr interpolationmode none
attr source packetSentToUpper
attr title "packets passed to higher layer, vector(packetBytes)"
vector 298 projectphase3.R2.ppp[0].ppp rxPkOk:vector(packetBytes) ETV
attr interpolationmode none
attr source rxPkOk
attr title "packets received OK, vector(packetBytes)"
vector 299 projectphase3.R2.ppp[0].ppp passedUpPk:vector(packetBytes) ETV
attr interpolationmode none
attr source packetSentToUpper
attr title "packets passed to higher layer, vector(packetBytes)"
vector 300 projectphase3.R6.ppp[0].ppp rxPkOk:vector(packetBytes) ETV
attr interpolationmode none
attr source rxPkOk
attr title "packets received OK, vector(packetBytes)"
vector 301 projectphase3.R6.ppp[0].ppp passedUpPk:vector(packetBytes) ETV
attr interpolationmode none
attr source packetSentToUpper
attr title "packets passed to higher layer, vector(packetBytes)"
vector 302 projectphase3.R1.ppp[1].ppp rxPkOk:vector(packetBytes) ETV
attr interpolationmode none
attr source rxPkOk
attr title "packets received OK, vector(packetBytes)"
vector 303 projectphase3.R1.ppp[1].ppp passedUpPk:vector(packetBytes) ETV
attr interpolationmode none
attr source packetSentToUpper
attr title "packets passed to higher layer, vector(packetBytes)"
vector 304 projectphase3.R5.ppp[1].ppp rxPkOk:vector(packetBytes) ETV
attr interpolationmode none
attr source rxPkOk
attr title "packets received OK, vector(packetBytes)"
vector 305 projectphase3.R5.ppp[1].ppp passedUpPk:vector(packetBytes) ETV
attr interpolationmode none
attr source packetSentToUpper
attr title "packets passed to higher layer, vector(packetBytes)"
vector 306 projectphase3.R4.ppp[1].ppp rxPkOk:vector(packetBytes) ETV
attr interpolationmode none
attr source rxPkOk
attr title "packets received OK, vector(packetBytes)"
vector 307 projectphase3.R4.ppp[1].ppp passedUpPk:vector(packetBytes) ETV
attr interpolationmode none
attr source packetSentToUpper
attr title "packets passed to higher layer, vector(packetBytes)"
vector 308 projectphase3.R3.ppp[0].ppp rxPkOk:vector(packetBytes) ETV
attr interpolationmode none
attr source rxPkOk
attr title "packets received OK, vector(packetBytes)"
vector 309 projectphase3.R3.ppp[0].ppp passedUpPk:vector(packetBytes) ETV
attr interpolationmode none
attr source packetSentToUpper
attr title "packets passed to higher layer, vector(packetBytes)"
vector 310 projectphase3.R11.ppp[0].ppp rxPkOk:vector(packetBytes) ETV
attr interpolationmode none
attr source rxPkOk
attr title "packets received OK, vector(packetBytes)"
vector 311 projectphase3.R11.ppp[0].ppp passedUpPk:vector(packetBytes) ETV
attr interpolationmode none
attr source packetSentToUpper
attr title "packets passed to higher layer, vector(packetBytes)"
vector 312 projectphase3.R12.ppp[0].ppp rxPkOk:vector(packetBytes) ETV
attr interpolationmode none
attr source rxPkOk
attr title "packets received OK, vector(packetBytes)"
vector 313 projectphase3.R12.ppp[0].ppp passedUpPk:vector(packetBytes) ETV
attr interpolationmode none
attr source packetSentToUpper
attr title "packets passed to higher layer, vector(packetBytes)"
vector 314 projectphase3.R7.ppp[1].ppp rxPkOk:vector(packetBytes) ETV
attr interpolationmode none
attr source rxPkOk
attr title "packets received OK, vector(packetBytes)"
vector 315 projectphase3.R7.ppp[1].ppp passedUpPk:vector(packetBytes) ETV
attr interpolationmode none
attr source packetSentToUpper
attr title "packets passed to higher layer, vector(packetBytes)"
vector 316 projectphase3.H1.app[2] numActiveSessions:vector ETV
attr interpolationmode sample-hold
attr source sum(connect)
attr title "number of active sessions, vector"
vector 317 projectphase3.H1.tcp.conn-34 tcpRcvQueueBytes:vector ETV
attr interpolationmode sample-hold
vector 318 projectphase3.H1.tcp.conn-34 rcvAdv:vector ETV
attr interpolationmode sample-hold
vector 319 projectphase3.H1.tcp.conn-34 rcvWnd:vector ETV
attr interpolationmode sample-hold
vector 320 projectphase3.H1.tcp.conn-34 sndAck:vector ETV
attr interpolationmode sample-hold
vector 321 projectphase3.H1.ipv4.arp arpRequestSent:vector(packetBytes) ETV
attr source arpRequestSent
attr title "ARP request sent, vector(packetBytes)"
vector 322 projectphase3.H1.eth[0].encap encapPk:vector(packetBytes) ETV
attr interpolationmode none
attr source encapPk
attr title "packets encapsulated, vector(packetBytes)"
vector 323 projectphase3.H1.eth[0].mac packetReceivedFromUpper:vector(packetBytes) ETV
attr interpolationmode none
attr source packetReceivedFromUpper
attr title "packet bytes from higher layer, vector(packetBytes)"
vector 324 projectphase3.H1.eth[0].mac.queue packetPushed:vector(packetBytes) ETV
attr interpolationmode none
attr source localSignal(packetPushed)
attr title "packets pushed, vector(packetBytes)"
vector 325 projectphase3.H1.eth[0].mac.queue queueLength:vector ETV
attr interpolationmode sample-hold
attr source "count(localSignal(packetPushed)) - count(localSignal(packetPopped)) - count(localSignal(packetRemoved)) - count(packetDropped)"
attr title "queue length, vector"
vector 326 projectphase3.H1.eth[0].mac.queue.classifier packetPushed:vector(packetBytes) ETV
attr interpolationmode none
attr title "packets pushed, vector(packetBytes)"
vector 327 projectphase3.H1.eth[0].mac.queue.dataQueue packetPushed:vector(packetBytes) ETV
attr interpolationmode none
attr title "packet pushed, vector(packetBytes)"
vector 328 projectphase3.H1.eth[0].mac.queue.dataQueue queueLength:vector ETV
attr interpolationmode sample-hold
attr source "count(packetPushed) - count(packetPopped) - count(packetRemoved) - count(packetDropped)"
attr title "queue length, vector"
vector 329 projectphase3.H1.eth[0].mac.queue.dataQueue packetPopped:vector(packetBytes) ETV
attr interpolationmode none
attr title "packet popped, vector(packetBytes)"
vector 330 projectphase3.H1.eth[0].mac.queue.dataQueue queueingTime:vector ETV
attr interpolationmode none
attr source queueingTime(packetPopped)
attr title "queueing times, vector"
attr unit s
vector 331 projectphase3.H1.eth[0].mac.queue queueingTime:vector ETV
attr interpolationmode none
attr source queueingTime(packetPopped)
attr title "queueing times, vector"
attr unit s
vector 332 projectphase3.H1.eth[0].mac.queue.scheduler packetPopped:vector(packetBytes) ETV
attr interpolationmode none
attr title "packets popped, vector(packetBytes)"
vector 333 projectphase3.H1.eth[0].mac.queue packetPopped:vector(packetBytes) ETV
attr interpolationmode none
attr source localSignal(packetPopped)
attr title "packets popped, vector(packetBytes)"
vector 334 projectphase3.H1.eth[0].mac txPk:vector(packetBytes) ETV
attr interpolationmode none
attr source packetSentToLower
attr title "packets transmitted, vector(packetBytes)"
vector 335 projectphase3.R2.eth[0].mac rxPkOk:vector(packetBytes) ETV
attr interpolationmode none
attr source rxPkOk
attr title "packets received OK, vector(packetBytes)"
vector 336 projectphase3.R2.eth[0].mac passedUpPk:vector(packetBytes) ETV
attr interpolationmode none
attr source packetSentToUpper
attr title "packets passed to higher layer, vector(packetBytes)"
vector 337 projectphase3.R2.eth[0].encap decapPk:vector(packetBytes) ETV
attr interpolationmode none
attr source decapPk
attr title "packets decapsulated, vector(packetBytes)"
vector 338 projectphase3.R2.eth[0].ingressTC.classifier pkClass:vector ETV
attr interpolationmode none
attr source pkClass
attr title "packet class, vector"
vector 339 projectphase3.R2.ipv4.arp arpReplySent:vector(packetBytes) ETV
attr source arpReplySent
attr title "ARP replies sent, vector(packetBytes)"
vector 340 projectphase3.R2.eth[0].ingressTC.marker packetMarked:vector(packetBytes) ETV
attr interpolationmode none
attr source packetMarked
attr title "packets marked, vector(packetBytes)"
vector 341 projectphase3.R9.ipv4.arp arpRequestSent:vector(packetBytes) ETV
attr source arpRequestSent
attr title "ARP request sent, vector(packetBytes)"
vector 342 projectphase3.H2.ipv4.arp arpReplySent:vector(packetBytes) ETV
attr source arpReplySent
attr title "ARP replies sent, vector(packetBytes)"
vector 343 projectphase3.H2.eth[0].encap encapPk:vector(packetBytes) ETV
attr interpolationmode none
attr source encapPk
attr title "packets encapsulated, vector(packetBytes)"
vector 344 projectphase3.H2.eth[0].mac packetReceivedFromUpper:vector(packetBytes) ETV
attr interpolationmode none
attr source packetReceivedFromUpper
attr title "packet bytes from higher layer, vector(packetBytes)"
vector 345 projectphase3.H2.eth[0].mac.queue packetPushed:vector(packetBytes) ETV
attr interpolationmode none
attr source localSignal(packetPushed)
attr title "packets pushed, vector(packetBytes)"
vector 346 projectphase3.H2.eth[0].mac.queue queueLength:vector ETV
attr interpolationmode sample-hold
attr source "count(localSignal(packetPushed)) - count(localSignal(packetPopped)) - count(localSignal(packetRemoved)) - count(packetDropped)"
attr title "queue length, vector"
vector 347 projectphase3.H2.eth[0].mac.queue.classifier packetPushed:vector(packetBytes) ETV
attr interpolationmode none
attr title "packets pushed, vector(packetBytes)"
vector 348 projectphase3.H2.eth[0].mac.queue.dataQueue packetPushed:vector(packetBytes) ETV
attr interpolationmode none
attr title "packet pushed, vector(packetBytes)"
vector 349 projectphase3.H2.eth[0].mac.queue.dataQueue queueLength:vector ETV
attr interpolationmode sample-hold
attr source "count(packetPushed) - count(packetPopped) - count(packetRemoved) - count(packetDropped)"
attr title "queue length, vector"
vector 350 projectphase3.H2.eth[0].mac.queue.dataQueue packetPopped:vector(packetBytes) ETV
attr interpolationmode none
attr title "packet popped, vector(packetBytes)"
vector 351 projectphase3.H2.eth[0].mac.queue.dataQueue queueingTime:vector ETV
attr interpolationmode none
attr source queueingTime(packetPopped)
attr title "queueing times, vector"
attr unit s
vector 352 projectphase3.H2.eth[0].mac.queue queueingTime:vector ETV
attr interpolationmode none
attr source queueingTime(packetPopped)
attr title "queueing times, vector"
attr unit s
vector 353 projectphase3.H2.eth[0].mac.queue.scheduler packetPopped:vector(packetBytes) ETV
attr interpolationmode none
attr title "packets popped, vector(packetBytes)"
vector 354 projectphase3.H2.eth[0].mac.queue packetPopped:vector(packetBytes) ETV
attr interpolationmode none
attr source localSignal(packetPopped)
attr title "packets popped, vector(packetBytes)"
vector 355 projectphase3.H2.eth[0].mac txPk:vector(packetBytes) ETV
attr interpolationmode none
attr source packetSentToLower
attr title "packets transmitted, vector(packetBytes)"
vector 356 projectphase3.R9.eth[0].mac rxPkOk:vector(packetBytes) ETV
attr interpolationmode none
attr source rxPkOk
attr title "packets received OK, vector(packetBytes)"
vector 357 projectphase3.R9.eth[0].mac passedUpPk:vector(packetBytes) ETV
attr interpolationmode none
attr source packetSentToUpper
attr title "packets passed to higher layer, vector(packetBytes)"
vector 358 projectphase3.R9.eth[0].encap decapPk:vector(packetBytes) ETV
attr interpolationmode none
attr source decapPk
attr title "packets decapsulated, vector(packetBytes)"
vector 359 projectphase3.R9.eth[0].ingressTC.classifier pkClass:vector ETV
attr interpolationmode none
attr source pkClass
attr title "packet class, vector"
vector 360 projectphase3.H2.tcp.conn-5 rcvSeq:vector ETV
attr interpolationmode sample-hold
vector 361 projectphase3.H2.tcp.conn-5 rcvAck:vector ETV
attr interpolationmode sample-hold
vector 362 projectphase3.H2.tcp.conn-35 rcvAdv:vector ETV
attr interpolationmode sample-hold
vector 363 projectphase3.H2.tcp.conn-35 sndWnd:vector ETV
attr interpolationmode sample-hold
vector 364 projectphase3.H2.tcp.conn-35 tcpRcvQueueBytes:vector ETV
attr interpolationmode sample-hold
vector 365 projectphase3.H2.tcp.conn-35 rcvWnd:vector ETV
attr interpolationmode sample-hold
vector 366 projectphase3.H2.tcp.conn-35 sndAck:vector ETV
attr interpolationmode sample-hold
vector 367 projectphase3.R9.eth[0].ingressTC.marker packetMarked:vector(packetBytes) ETV
attr interpolationmode none
attr source packetMarked
attr title "packets marked, vector(packetBytes)"
vector 368 projectphase3.H1.tcp.conn-34 rcvSeq:vector ETV
attr interpolationmode sample-hold
vector 369 projectphase3.H1.tcp.conn-34 rcvAck:vector ETV
attr interpolationmode sample-hold
vector 370 projectphase3.H1.tcp.conn-34 sndWnd:vector ETV
attr interpolationmode sample-hold
vector 371 projectphase3.H1.app[2] packetSent:vector(packetBytes) ETV
attr interpolationmode none
attr source packetSent
attr title "packets sent, vector(packetBytes)"
vector 372 projectphase3.H1.tcp.conn-34 sndNxt:vector ETV
attr interpolationmode sample-hold
vector 373 projectphase3.H1.tcp.conn-34 unacked:vector ETV
attr interpolationmode sample-hold
vector 374 projectphase3.H2.tcp.conn-35 rcvSeq:vector ETV
attr interpolationmode sample-hold
vector 375 projectphase3.H2.tcp.conn-35 rcvAck:vector ETV
attr interpolationmode sample-hold
vector 376 projectphase3.H2.tcp.conn-35 unacked:vector ETV
attr interpolationmode sample-hold
vector 377 projectphase3.H2.tcp.conn-35 dupAcks:vector ETV
attr interpolationmode sample-hold
vector 378 projectphase3.H2.app[2] packetReceived:vector(packetBytes) ETV
attr interpolationmode none
attr source packetReceived
attr title "packets received, vector(packetBytes)"
vector 379 projectphase3.H2.app[2] endToEndDelay:vector ETV
attr interpolationmode none
attr source dataAge(packetReceived)
attr title "end-to-end delay, vector"
attr unit s
vector 380 projectphase3.H2.app[2] packetSent:vector(packetBytes) ETV
attr interpolationmode none
attr source packetSent
attr title "packets sent, vector(packetBytes)"
vector 381 projectphase3.H2.tcp.conn-35 sndNxt:vector ETV
attr interpolationmode sample-hold
vector 382 projectphase3.H1.tcp.conn-34 rtt:vector ETV
attr interpolationmode sample-hold
vector 383 projectphase3.H1.tcp.conn-34 srtt:vector ETV
attr interpolationmode sample-hold
vector 384 projectphase3.H1.tcp.conn-34 rttvar:vector ETV
attr interpolationmode sample-hold
vector 385 projectphase3.H1.tcp.conn-34 rto:vector ETV
attr interpolationmode sample-hold
vector 386 projectphase3.H1.tcp.conn-34 cwnd:vector ETV
attr interpolationmode sample-hold
vector 387 projectphase3.H1.tcp.conn-34 ssthresh:vector ETV
attr interpolationmode sample-hold
vector 388 projectphase3.H1.tcp.conn-34 dupAcks:vector ETV
attr interpolationmode sample-hold
vector 389 projectphase3.H1.app[2] packetReceived:vector(packetBytes) ETV
attr interpolationmode none
attr source packetReceived
attr title "packets received, vector(packetBytes)"
vector 390 projectphase3.H1.app[2] endToEndDelay:vector ETV
attr interpolationmode none
attr source dataAge(packetReceived)
attr title "end-to-end delay, vector"
attr unit s
vector 391 projectphase3.H1.app[0] packetSent:vector(packetBytes) ETV
attr interpolationmode none
attr source packetSent
attr title "packets sent, vector(packetBytes)"
vector 392 projectphase3.H1.udp packetSent:vector(packetBytes) ETV
attr interpolationmode none
attr source packetSent
attr title "packets sent, vector(packetBytes)"
vector 393 projectphase3.H2.tcp.conn-35 rtt:vector ETV
attr interpolationmode sample-hold
vector 394 projectphase3.H2.tcp.conn-35 srtt:vector ETV
attr interpolationmode sample-hold
vector 395 projectphase3.H2.tcp.conn-35 rttvar:vector ETV
attr interpolationmode sample-hold
vector 396 projectphase3.H2.tcp.conn-35 rto:vector ETV
attr interpolationmode sample-hold
vector 397 projectphase3.H2.tcp.conn-35 cwnd:vector ETV
attr interpolationmode sample-hold
vector 398 projectphase3.H2.tcp.conn-35 ssthresh:vector ETV
attr interpolationmode sample-hold
vector 399 projectphase3.H1.app[1] packetSent:vector(packetBytes) ETV
attr interpolationmode none
attr source packetSent
attr title "packets sent, vector(packetBytes)"
vector 400 projectphase3.H2.udp packetReceived:vector(packetBytes) ETV
attr interpolationmode none
attr source packetReceived
attr title "packets received, vector(packetBytes)"
vector 401 projectphase3.H2.udp passedUpPk:vector(count) ETV
attr interpolationmode none
attr source packetSentToUpper
attr title "packets passed up, vector(count)"
vector 402 projectphase3.H2.app[0] packetReceived:vector(packetBytes) ETV
attr interpolationmode none
attr source packetReceived
attr title "packets received, vector(packetBytes)"
vector 403 projectphase3.H2.app[0] endToEndDelay:vector ETV
attr interpolationmode none
attr source dataAge(packetReceived)
attr title "delay, vector"
attr unit s
vector 404 projectphase3.H2.app[1] packetReceived:vector(packetBytes) ETV
attr interpolationmode none
attr source packetReceived
attr title "packets received, vector(packetBytes)"
vector 405 projectphase3.H2.app[1] throughput:vector ETV
attr source throughput(packetReceived)
attr title "throughput, vector"
attr unit bps
vector 406 projectphase3.H2.app[1] endToEndDelay:vector ETV
attr interpolationmode none
attr source dataAge(packetReceived)
attr title "end-to-end delay, vector"
attr unit s
vector 407 projectphase3.H2.app[1] rcvdPkSeqNo:vector ETV
attr interpolationmode none
attr source appPkSeqNo(packetReceived)
attr title "received packet sequence number, vector"
364	74830 132 540 837 1.07378486 1.57659238 6 0 0 0 0
377	74962 93 656 1910 1.29056162 2.683587442304 4 0 0 0 0
376	75055 116 634 1910 1.2163081 2.683587442304 5 0 100 101 10001
375	75171 139 634 1910 1.2163081 2.683587442304 5 268447 268548 1342536 360480594340
374	75310 139 634 1910 1.2163081 2.683587442304 5 250001 250052 1250156 312578007908
366	75449 135 540 837 1.07378486 1.57659238 5 250001 250052 1250207 312603510611
381	75584 27 659 659 1.29056162 1.29056162 1 268447 268447 268447 72063791809
362	75611 162 540 837 1.07378486 1.57659238 6 257505 257556 1545232 397956992372
365	75773 125 540 837 1.07378486 1.57659238 5 7504 7504 37520 281550080
363	75898 104 540 1910 1.07378486 2.683587442304 4 7504 7504 30016 225240064
396	76002 32 810 810 1.56484238 1.56484238 1 2.796425475 2.796425475 2.796425475 7.819995437229
395	76034 32 810 810 1.56484238 1.56484238 1 0.690535095 0.690535095 0.690535095 0.47683871742666
394	76066 32 810 810 1.56484238 1.56484238 1 0.034285095 0.034285095 0.034285095 0.001175467739159
393	76098 31 810 810 1.56484238 1.56484238 1 0.27428076 0.27428076 0.27428076 0.075229935306178
398	76129 67 810 1910 1.56484238 2.683587442304 2 4294967295 4294967295 8589934590 3.6893488130239e+19
397	76196 55 810 1910 1.56484238 2.683587442304 2 1072 1608 2680 3734848
vector 408 projectphase3.R2.ppp[1].ppp.queue packetDropQueueOverflow:vector(packetBytes) ETV
attr interpolationmode none
attr source packetDropReasonIsQueueOverflow(packetDropped)
attr title "packet drops: queue overflow, vector(packetBytes)"
vector 409 projectphase3.H1.tcp.conn-36 tcpRcvQueueBytes:vector ETV
attr interpolationmode sample-hold
vector 410 projectphase3.H1.tcp.conn-36 rcvAdv:vector ETV
attr interpolationmode sample-hold
vector 411 projectphase3.H1.tcp.conn-36 rcvWnd:vector ETV
attr interpolationmode sample-hold
vector 412 projectphase3.H1.tcp.conn-36 sndAck:vector ETV
attr interpolationmode sample-hold
vector 413 projectphase3.H2.app[0] outOfOrderPk:vector(packetBytes) ETV
attr interpolationmode none
attr source outOfOrderPk
attr title "packets received out of order, vector(packetBytes)"
vector 414 projectphase3.R2.ppp[0].ppp.queue packetDropQueueOverflow:vector(packetBytes) ETV
attr interpolationmode none
attr source packetDropReasonIsQueueOverflow(packetDropped)
attr title "packet drops: queue overflow, vector(packetBytes)"
vector 415 projectphase3.R4.ppp[2].ppp.queue packetDropQueueOverflow:vector(packetBytes) ETV
attr interpolationmode none
attr source packetDropReasonIsQueueOverflow(packetDropped)
attr title "packet drops: queue overflow, vector(packetBytes)"
409	77575 115 12144 56399 11.657104 56.657104 5 0 0 0 0
412	77690 115 12144 56399 11.657104 56.657104 5 0 0 0 0
410	77805 130 12144 56399 11.657104 56.657104 5 7504 7504 37520 281550080
411	77935 130 12144 56399 11.657104 56.657104 5 7504 7504 37520 281550080
vector 416 projectphase3.H1.tcp.conn-37 tcpRcvQueueBytes:vector ETV
attr interpolationmode sample-hold
vector 417 projectphase3.H1.tcp.conn-37 rcvAdv:vector ETV
attr interpolationmode sample-hold
vector 418 projectphase3.H1.tcp.conn-37 rcvWnd:vector ETV
attr interpolationmode sample-hold
vector 419 projectphase3.H1.tcp.conn-37 sndAck:vector ETV
attr interpolationmode sample-hold
vector 420 projectphase3.R1.ppp[1].ppp.queue packetDropQueueOverflow:vector(packetBytes) ETV
attr interpolationmode none
attr source packetDropReasonIsQueueOverflow(packetDropped)
attr title "packet drops: queue overflow, vector(packetBytes)"
416	78702 121 92723 130631 96.657104 141.657104 5 0 0 0 0
419	78823 121 92723 130631 96.657104 141.657104 5 0 0 0 0
417	78944 136 92723 130631 96.657104 141.657104 5 7504 7504 37520 281550080
418	79080 136 92723 130631 96.657104 141.657104 5 7504 7504 37520 281550080
vector 421 projectphase3.H1.tcp.conn-38 tcpRcvQueueBytes:vector ETV
attr interpolationmode sample-hold
vector 422 projectphase3.H1.tcp.conn-38 rcvAdv:vector ETV
attr interpolationmode sample-hold
vector 423 projectphase3.H1.tcp.conn-38 rcvWnd:vector ETV
attr interpolationmode sample-hold
vector 424 projectphase3.H1.tcp.conn-38 sndAck:vector ETV
attr interpolationmode sample-hold
vector 425 projectphase3.H2.tcp.conn-39 rcvAdv:vector ETV
attr interpolationmode sample-hold
vector 426 projectphase3.H2.tcp.conn-39 sndWnd:vector ETV
attr interpolationmode sample-hold
vector 427 projectphase3.H2.tcp.conn-39 tcpRcvQueueBytes:vector ETV
attr interpolationmode sample-hold
vector 428 projectphase3.H2.tcp.conn-39 rcvWnd:vector ETV
attr interpolationmode sample-hold
vector 429 projectphase3.H2.tcp.conn-39 sndAck:vector ETV
attr interpolationmode sample-hold
vector 430 projectphase3.H1.tcp.conn-38 rcvSeq:vector ETV
attr interpolationmode sample-hold
vector 431 projectphase3.H1.tcp.conn-38 rcvAck:vector ETV
attr interpolationmode sample-hold
vector 432 projectphase3.H1.tcp.conn-38 sndWnd:vector ETV
attr interpolationmode sample-hold
vector 433 projectphase3.H1.tcp.conn-38 sndNxt:vector ETV
attr interpolationmode sample-hold
[...]
155	86120884 719 1006658 1074032 1130.096843115973 1240.096843115973 21 48 144 1692 158448
156	86121603 1386 1006658 1074032 1130.096843115973 1240.096843115973 42 0 1 21 21
157	86122989 719 1006658 1074032 1130.096843115973 1240.096843115973 21 48 144 1692 158448
158	86123708 718 1006658 1074032 1130.096843115973 1240.096843115973 21 0 0.04075 0.113954129584 0.0043743955270551
159	86124426 719 1006658 1074032 1130.096843115973 1240.096843115973 21 55 151 1839 183165
160	86125145 492 1006661 1074035 1130.097450692058 1240.097450692058 16 64 84 1092 74832
161	86125637 492 1006661 1074035 1130.097450692058 1240.097450692058 16 64 84 1092 74832
162	86126129 952 1006661 1074035 1130.097450692058 1240.097450692058 32 0 1 16 16
163	86127081 492 1006661 1074035 1130.097450692058 1240.097450692058 16 64 84 1092 74832
164	86127573 476 1006661 1074035 1130.097450692058 1240.097450692058 16 0 0 0 0
165	86128049 492 1006661 1074035 1130.097450692058 1240.097450692058 16 71 91 1204 90904
166	86128541 753 1006664 1074038 1130.097996321822 1240.097996321822 22 64 144 1820 169712
167	86129294 753 1006664 1074038 1130.097996321822 1240.097996321822 22 64 144 1820 169712
168	86130047 1452 1006664 1074038 1130.097996321822 1240.097996321822 44 0 1 22 22
169	86131499 753 1006664 1074038 1130.097996321822 1240.097996321822 22 64 144 1820 169712
170	86132252 726 1006664 1074038 1130.097996321822 1240.097996321822 22 0 0 0 0
171	86132978 753 1006664 1074038 1130.097996321822 1240.097996321822 22 71 151 1974 196270
172	86133731 31103 1000276 1074041 1122.982831632304 1240.098632778686 889 68 528 395332 194775728
173	86164834 31103 1000276 1074041 1122.982831632304 1240.098632778686 889 68 528 395332 194775728
174	86195937 58674 1000276 1074041 1122.982831632304 1240.098632778686 1778 0 3 1047 1213
175	86254611 31103 1000369 1074041 1123.064831632304 1240.098632778686 889 68 528 395332 194775728
176	86285714 30530 1000369 1074041 1123.064831632304 1240.098632778686 889 0 0.157 18.65448853618 1.5110842638169
177	86316244 31103 1000369 1074041 1123.064831632304 1240.098632778686 889 75 535 401555 200353937
178	86347347 480 1006670 1074044 1130.09907942101 1240.09907942101 16 64 84 1092 74832
179	86347827 480 1006670 1074044 1130.09907942101 1240.09907942101 16 64 84 1092 74832
180	86348307 928 1006670 1074044 1130.09907942101 1240.09907942101 32 0 1 16 16
181	86349235 480 1006670 1074044 1130.09907942101 1240.09907942101 16 64 84 1092 74832
182	86349715 464 1006670 1074044 1130.09907942101 1240.09907942101 16 0 0 0 0
183	86350179 480 1006670 1074044 1130.09907942101 1240.09907942101 16 71 91 1204 90904
184	86350659 480 1006685 1074047 1130.10130181749 1240.10130181749 16 64 84 1092 74832
185	86351139 480 1006685 1074047 1130.10130181749 1240.10130181749 16 64 84 1092 74832
186	86351619 928 1006685 1074047 1130.10130181749 1240.10130181749 32 0 1 16 16
187	86352547 480 1006685 1074047 1130.10130181749 1240.10130181749 16 64 84 1092 74832
188	86353027 464 1006685 1074047 1130.10130181749 1240.10130181749 16 0 0 0 0
189	86353491 480 1006685 1074047 1130.10130181749 1240.10130181749 16 71 91 1204 90904
190	86353971 583 1006688 1074050 1130.103053060732 1240.103053060732 17 68 144 1500 149232
191	86354554 583 1006688 1074050 1130.103053060732 1240.103053060732 17 68 144 1500 149232
192	86355137 1122 1006688 1074050 1130.103053060732 1240.103053060732 34 0 1 17 17
193	86356259 583 1006688 1074050 1130.103053060732 1240.103053060732 17 68 144 1500 149232
194	86356842 561 1006688 1074050 1130.103053060732 1240.103053060732 17 0 0 0 0
195	86357403 583 1006688 1074050 1130.103053060732 1240.103053060732 17 75 151 1619 171065
196	86357986 492 1006691 1074053 1130.105634331586 1240.105634331586 16 64 84 1092 74832
197	86358478 492 1006691 1074053 1130.105634331586 1240.105634331586 16 64 84 1092 74832
198	86358970 952 1006691 1074053 1130.105634331586 1240.105634331586 32 0 1 16 16
199	86359922 492 1006691 1074053 1130.105634331586 1240.105634331586 16 64 84 1092 74832
200	86360414 476 1006691 1074053 1130.105634331586 1240.105634331586 16 0 0 0 0
201	86360890 492 1006691 1074053 1130.105634331586 1240.105634331586 16 71 91 1204 90904
202	86361382 35797 1000364 1074058 1123.034388986389 1240.106744704792 1045 68 528 438240 209705952
203	86397179 35797 1000364 1074058 1123.034388986389 1240.106744704792 1045 68 528 438240 209705952
204	86432976 73414 1000277 1074058 1122.984581632304 1240.106744704792 2169 0 101 203940 19571516
205	86506390 31070 1000277 1074058 1122.984581632304 1240.106744704792 888 68 528 394096 193983872
206	86537460 41603 1000277 1074058 1122.984581632304 1240.106744704792 888 0 11.740942645915 9333.735149744 98750.137220151
207	86579063 31070 1000277 1074058 1122.984581632304 1240.106744704792 888 75 535 400312 199544728
208	86610133 34622 1000259 1074411 1122.952888986389 1245.116096980613 992 48 528 374844 171052400
209	86644755 34622 1000259 1074411 1122.952888986389 1245.116096980613 992 48 528 374844 171052400
210	86679377 68571 1000259 1074411 1122.952888986389 1245.116096980613 1985 0 101 167278 15852216
211	86747948 16168 1000341 1074411 1123.006638986389 1245.116096980613 463 48 528 176476 82107184
212	86764116 19057 1000341 1074411 1123.006638986389 1245.116096980613 463 0 11.441 3067.3974776117 26376.613592904
213	86783173 16168 1000341 1074411 1123.006638986389 1245.116096980613 463 55 535 179717 84600535
214	86799341 753 1006702 1074063 1130.108313445195 1240.108313445195 22 71 151 1974 196270
215	86800094 753 1006702 1074063 1130.108313445195 1240.108313445195 22 64 144 1820 169712
216	86800847 674 1006709 1074069 1130.10857770417 1240.10857770417 21 71 91 1559 116109
217	86801521 674 1006709 1074069 1130.10857770417 1240.10857770417 21 64 84 1412 95312
218	86802195 8460 1000338 1074068 1123 1240.10852570675 244 64 528 89024 40000928
219	86810655 8460 1000338 1074068 1123 1240.10852570675 244 64 528 89024 40000928
220	86819115 15500 1000338 1074068 1123 1240.10852570675 488 0 70 14308 598660
221	86834615 7579 1000338 1074068 1123 1240.10852570675 244 64 528 89024 40000928
222	86842194 9213 1000338 1074068 1123 1240.10852570675 244 0 11.275 1374.5373595477 10513.820638508
223	86851407 7579 1000338 1074068 1123 1240.10852570675 244 71 535 90732 41259220
224	86858986 583 1006723 1074080 1130.109716053439 1240.109716053439 17 75 151 1619 171065
225	86859569 583 1006723 1074080 1130.109716053439 1240.109716053439 17 68 144 1500 149232
226	86860152 7684 1006715 1074075 1130.108847807824 1240.108847807824 220 48 528 88724 42503344
227	86867836 7684 1006715 1074075 1130.108847807824 1240.108847807824 220 48 528 88724 42503344
228	86875520 14520 1006715 1074075 1130.108847807824 1240.108847807824 440 0 3 290 368
229	86890040 7684 1006715 1074075 1130.108847807824 1240.108847807824 220 48 528 88724 42503344
230	86897724 7994 1006715 1074075 1130.108847807824 1240.108847807824 220 0 0.15975 8.61983235713 0.69183161976349
231	86905718 7684 1006715 1074075 1130.108847807824 1240.108847807824 220 55 535 90264 43756260
232	86913402 583 1006719 1074079 1130.109555914097 1240.109555914097 17 68 144 1500 149232
233	86913985 583 1006719 1074079 1130.109555914097 1240.109555914097 17 68 144 1500 149232
234	86914568 1122 1006719 1074079 1130.109555914097 1240.109555914097 34 0 1 17 17
235	86915690 583 1006719 1074079 1130.109555914097 1240.109555914097 17 68 144 1500 149232
236	86916273 561 1006719 1074079 1130.109555914097 1240.109555914097 17 0 0 0 0
237	86916834 583 1006719 1074079 1130.109555914097 1240.109555914097 17 75 151 1619 171065
238	86917417 583 1006729 1074083 1130.110623400851 1240.110623400851 17 75 151 1619 171065
239	86918000 583 1006729 1074083 1130.110623400851 1240.110623400851 17 68 144 1500 149232
240	86918583 583 1006732 1074086 1130.111012027451 1240.111012027451 17 75 151 1619 171065
241	86919166 583 1006732 1074086 1130.111012027451 1240.111012027451 17 68 144 1500 149232
242	86919749 583 1006737 1074091 1130.111032276554 1240.111032276554 17 68 144 1500 149232
243	86920332 583 1006737 1074091 1130.111032276554 1240.111032276554 17 68 144 1500 149232
244	86920915 1122 1006737 1074091 1130.111032276554 1240.111032276554 34 0 1 17 17
245	86922037 583 1006737 1074091 1130.111032276554 1240.111032276554 17 68 144 1500 149232
246	86922620 567 1006737 1074091 1130.111032276554 1240.111032276554 17 0 0.04075 0.04075 0.0016605625
247	86923187 583 1006737 1074091 1130.111032276554 1240.111032276554 17 75 151 1619 171065
248	86923770 31168 1000280 1074096 1122.986581632304 1240.111736760164 891 64 528 394396 194198640
249	86954938 31168 1000280 1074096 1122.986581632304 1240.111736760164 891 64 528 394396 194198640
250	86986106 58872 1000273 1074096 1122.980831632304 1240.111736760164 1784 0 6 4356 12648
251	87044978 31238 1000273 1074096 1122.980831632304 1240.111736760164 893 64 528 395452 194756208
252	87076216 34205 1000273 1074096 1122.980831632304 1240.111736760164 893 0 0.41109487214 247.8119487214 70.367975080701
253	87110421 31238 1000273 1074096 1122.980831632304 1240.111736760164 893 71 535 401703 200336293
254	87141659 31448 1000262 1074097 1122.956081632304 1240.113223993728 899 71 535 404585 201810267
255	87173107 31448 1000262 1074097 1122.956081632304 1240.113223993728 899 64 528 398292 196190128
256	87204555 28509 1000362 1074100 1123.034388986389 1240.113260047472 815 55 535 355649 174738351
257	87233064 28509 1000362 1074100 1123.034388986389 1240.113260047472 815 48 528 349944 169799200
258	87261573 492 1006755 1074105 1130.113836309436 1240.113836309436 16 64 84 1092 74832
259	87262065 492 1006755 1074105 1130.113836309436 1240.113836309436 16 64 84 1092 74832
260	87262557 952 1006755 1074105 1130.113836309436 1240.113836309436 32 0 1 16 16
261	87263509 492 1006755 1074105 1130.113836309436 1240.113836309436 16 64 84 1092 74832
262	87264001 476 1006755 1074105 1130.113836309436 1240.113836309436 16 0 0 0 0
263	87264477 492 1006755 1074105 1130.113836309436 1240.113836309436 16 71 91 1204 90904
264	87264969 874 1006758 1074112 1130.116096980613 1240.117096980613 26 59 299 2438 332762
265	87265843 874 1006758 1074112 1130.116096980613 1240.117096980613 26 52 292 2256 299904
266	87266717 753 1006774 1074123 1130.118746321822 1240.118746321822 22 71 151 1974 196270
267	87267470 753 1006774 1074123 1130.118746321822 1240.118746321822 22 64 144 1820 169712
268	87268223 516 1006768 1074117 1130.118200692058 1240.118200692058 16 71 91 1204 90904
269	87268739 516 1006768 1074117 1130.118200692058 1240.118200692058 16 64 84 1092 74832
270	87269255 492 1006773 1074122 1130.118226617754 1240.118226617754 16 64 84 1092 74832
271	87269747 492 1006773 1074122 1130.118226617754 1240.118226617754 16 64 84 1092 74832
272	87270239 952 1006773 1074122 1130.118226617754 1240.118226617754 32 0 1 16 16
273	87271191 492 1006773 1074122 1130.118226617754 1240.118226617754 16 64 84 1092 74832
274	87271683 476 1006773 1074122 1130.118226617754 1240.118226617754 16 0 0 0 0
275	87272159 492 1006773 1074122 1130.118226617754 1240.118226617754 16 71 91 1204 90904
276	87272651 31138 1000370 1074126 1123.066831632304 1240.119382778686 890 75 535 402090 200640162
277	87303789 31138 1000370 1074126 1123.066831632304 1240.119382778686 890 68 528 395860 195054512
278	87334927 504 1006792 1074132 1130.11982942101 1240.11982942101 16 71 91 1204 90904
279	87335431 504 1006792 1074132 1130.11982942101 1240.11982942101 16 64 84 1092 74832
280	87335935 7577 1000340 1074131 1123 1240.119763288281 244 64 528 89024 40000928
281	87343512 7577 1000340 1074131 1123 1240.119763288281 244 64 528 89024 40000928
282	87351089 14258 1000340 1074131 1123 1240.119763288281 488 0 2 246 248
283	87365347 7625 1000340 1074131 1123 1240.119763288281 244 64 528 89024 40000928
284	87372972 7482 1000340 1074131 1123 1240.119763288281 244 0 0.12925 1.783888986389 0.072993723928486
285	87380454 7625 1000340 1074131 1123 1240.119763288281 244 71 535 90732 41259220
286	87388079 504 1006797 1074137 1130.12205181749 1240.12205181749 16 71 91 1204 90904
287	87388583 504 1006797 1074137 1130.12205181749 1240.12205181749 16 64 84 1092 74832
288	87389087 583 1006800 1074140 1130.123803060732 1240.123803060732 17 75 151 1619 171065
289	87389670 583 1006800 1074140 1130.123803060732 1240.123803060732 17 68 144 1500 149232
290	87390253 516 1006804 1074146 1130.126384331586 1240.126384331586 16 71 91 1204 90904
291	87390769 516 1006804 1074146 1130.126384331586 1240.126384331586 16 64 84 1092 74832
292	87391285 31105 1000278 1074150 1122.986581632304 1240.127494704792 889 75 535 400847 199830953
293	87422390 31105 1000278 1074150 1122.986581632304 1240.127494704792 889 68 528 394624 194262656
294	87453495 16203 1000342 1074413 1123.008638986389 1245.131846980613 464 55 535 180252 84886760
295	87469698 16203 1000342 1074413 1123.008638986389 1245.131846980613 464 48 528 177004 82385968
296	87485901 512 1006809 1074157 1130.129292504552 1240.129292504552 16 71 91 1204 90904
297	87486413 512 1006809 1074157 1130.129292504552 1240.129292504552 16 64 84 1092 74832
298	87486925 7684 1006812 1074160 1130.129597807824 1240.129597807824 220 55 535 90264 43756260
299	87494609 7684 1006812 1074160 1130.129597807824 1240.129597807824 220 48 528 88724 42503344
300	87502293 31273 1000274 1074164 1122.982831632304 1240.132486760164 894 71 535 401910 200379142
301	87533566 31273 1000274 1074164 1122.982831632304 1240.132486760164 894 64 528 395652 194796208
302	87564839 719 1006820 1074168 1130.136343115973 1240.136343115973 21 55 151 1839 183165
303	87565558 719 1006820 1074168 1130.136343115973 1240.136343115973 21 48 144 1692 158448
304	87566277 516 1006825 1074173 1130.138976617754 1240.138976617754 16 71 91 1204 90904
305	87566793 516 1006825 1074173 1130.138976617754 1240.138976617754 16 64 84 1092 74832
306	87567309 7735 1000346 1074177 1123.01975 1240.140513288281 244 71 535 90732 41259220
307	87575044 7735 1000346 1074177 1123.01975 1240.140513288281 244 64 528 89024 40000928
308	87582779 7586 1000366 1074185 1123.0375 1240.14802570675 244 71 535 90732 41259220
309	87590365 7586 1000366 1074185 1123.0375 1240.14802570675 244 64 528 89024 40000928
310	87597951 583 1006849 1074189 1130.149055914097 1240.149055914097 17 75 151 1619 171065
311	87598534 583 1006849 1074189 1130.149055914097 1240.149055914097 17 68 144 1500 149232
312	87599117 583 1006852 1074192 1130.150532276554 1240.150532276554 17 75 151 1619 171065
313	87599700 583 1006852 1074192 1130.150532276554 1240.150532276554 17 68 144 1500 149232
314	87600283 512 1006868 1074196 1130.153336309436 1240.153336309436 16 71 91 1204 90904
315	87600795 512 1006868 1074196 1130.153336309436 1240.153336309436 16 64 84 1092 74832
322	87601307 106629 1000284 1066038 1122.992844616389 1199.992844616389 3053 200 528 1242328 582017984
323	87707936 106629 1000285 1066039 1122.992844616389 1199.992844616389 3053 218 546 1297282 627730964
324	87814565 106629 1000285 1066039 1122.992844616389 1199.992844616389 3053 218 546 1297282 627730964
325	87921194 201046 1000285 1066039 1122.992844616389 1199.992844616389 6106 0 1 3053 3053
326	88122240 106629 1000285 1066039 1122.992844616389 1199.992844616389 3053 218 546 1297282 627730964
327	88228869 106629 1000285 1066039 1122.992844616389 1199.992844616389 3053 218 546 1297282 627730964
328	88335498 201046 1000285 1066039 1122.992844616389 1199.992844616389 6106 0 1 3053 3053
329	88536544 106629 1000285 1066039 1122.992844616389 1199.992844616389 3053 218 546 1297282 627730964
330	88643173 100583 1000285 1066039 1122.992844616389 1199.992844616389 3053 0 1.5926908e-05 7.963454e-05 1.2683319922023e-09
331	88743756 301749 1000285 1066039 1122.992844616389 1199.992844616389 9159 0 1.5926908e-05 0.00023890362 3.804995976607e-09
332	89045505 106629 1000285 1066039 1122.992844616389 1199.992844616389 3053 218 546 1297282 627730964
333	89152134 106629 1000285 1066039 1122.992844616389 1199.992844616389 3053 218 546 1297282 627730964
334	89258763 106629 1000286 1066040 1122.992888936389 1199.992888936389 3053 218 546 1297282 627730964
335	89365392 106629 1000287 1066041 1122.992888986389 1199.992888986389 3053 218 546 1297282 627730964
336	89472021 106629 1000287 1066041 1122.992888986389 1199.992888986389 3053 218 546 1297282 627730964
337	89578650 106629 1000288 1066042 1122.992888986389 1199.992888986389 3053 200 528 1242328 582017984
338	89685279 100523 1000289 1066043 1122.992888986389 1199.992888986389 3053 0 1 1926 1926
340	89785802 106629 1000289 1066043 1122.992888986389 1199.992888986389 3053 200 528 1242328 582017984
341	89892431 34 1066812 1066812 1201.700581632304 1201.700581632304 1 28 28 28 784
342	89892465 34 1066818 1066818 1201.700587442304 1201.700587442304 1 28 28 28 784
343	89892499 34 1066819 1066819 1201.700587442304 1201.700587442304 1 28 28 28 784
344	89892533 34 1066820 1066820 1201.700587442304 1201.700587442304 1 46 46 46 2116
345	89892567 34 1066820 1066820 1201.700587442304 1201.700587442304 1 64 64 64 4096
346	89892601 66 1066820 1066820 1201.700587442304 1201.700587442304 2 0 1 1 1
347	89892667 34 1066820 1066820 1201.700587442304 1201.700587442304 1 64 64 64 4096
348	89892701 34 1066820 1066820 1201.700587442304 1201.700587442304 1 64 64 64 4096
349	89892735 66 1066820 1066820 1201.700587442304 1201.700587442304 2 0 1 1 1
350	89892801 34 1066820 1066820 1201.700587442304 1201.700587442304 1 64 64 64 4096
351	89892835 33 1066820 1066820 1201.700587442304 1201.700587442304 1 0 0 0 0
352	89892868 99 1066820 1066820 1201.700587442304 1201.700587442304 3 0 0 0 0
353	89892967 34 1066820 1066820 1201.700587442304 1201.700587442304 1 64 64 64 4096
354	89893001 34 1066820 1066820 1201.700587442304 1201.700587442304 1 64 64 64 4096
355	89893035 34 1066822 1066822 1201.700593202304 1201.700593202304 1 64 64 64 4096
356	89893069 34 1066823 1066823 1201.700593252304 1201.700593252304 1 64 64 64 4096
357	89893103 34 1066823 1066823 1201.700593252304 1201.700593252304 1 64 64 64 4096
358	89893137 34 1066824 1066824 1201.700593252304 1201.700593252304 1 46 46 46 2116
359	89893171 34 1066825 1066825 1201.700593252304 1201.700593252304 1 -1 -1 -1 1
391	89893205 39219 1000425 1065835 1123.151079232134 1199.662394916231 1127 172 172 193844 33341168
392	89932424 106629 1000282 1066036 1122.992844616389 1199.992844616389 3053 180 508 1181268 533546064
399	90039053 67410 1000281 1066035 1122.992844616389 1199.992844616389 1926 500 500 963000 481500000
400	90106463 30695 1000270 1073024 1122.956126002304 1223.931126002304 877 180 508 378932 180512336
401	90137158 32449 1000270 1073024 1122.956126002304 1223.931126002304 877 10074 10950 9219024 96966590726
402	90169607 4935 1000863 1072953 1123.542849762304 1223.262349762304 141 172 172 24252 4171344
403	90174542 6613 1000863 1072953 1123.542849762304 1223.262349762304 141 13.10402053017 24.383129516485 2901.1707193885 61047.270146644
404	90181155 23590 1000271 1073025 1122.956126002304 1223.931126002304 674 500 500 337000 168500000
405	90204745 30428 1000271 1074626 1122.9 1250 1272 0 40000 27000000 1080000000000
406	90235173 31678 1000271 1073025 1122.956126002304 1223.931126002304 674 10.962031385915 35.195031385915 14849.715904107 337616.18998749
407	90266851 24938 1000271 1073025 1122.956126002304 1223.931126002304 674 27522 29957 19379643 557569626737
408	90291789 56550 1012516 1066045 1135.93313104252 1199.992888986389 1620 68 528 652584 304339680
413	90348339 2170 1014308 1071146 1137.665849762304 1216.759099762304 62 172 172 10664 1834208
414	90350509 18546 1003032 1054306 1126.301168504705 1185.116096980613 530 48 528 198896 89224000
415	90369055 7905 1003177 1064856 1126.4175 1198.533138986389 236 68 528 80408 33867520
439	90376960 261403 1074626 1074626 0.1 1250 12500 0 0 0 0

