version 2
run Exp1DropTailWithoutPolicingAndShaping-0-20250330-01:17:59-13444
attr configname Exp1DropTailWithoutPolicingAndShaping
attr datetime 20250330-01:17:59
attr experiment Exp1DropTailWithoutPolicingAndShaping
attr inifile omnetpp.ini
attr iterationvars ""
attr iterationvarsf ""
attr measurement ""
attr network projectphase3
attr processid 13444
attr repetition 0
attr replication #0
attr resultdir results
attr runnumber 0
attr seedset 0
param **.ppp[*].ppp.queue.typename "\"DropTailQueue\""
param **.eth[*].mac.queue.typename "\"EtherQosQueue\""
param **.eth[*].mac.queue.dataQueue.typename "\"DropTailQueue\""
param **.queue.packetCapacity 100
param **.H?.numApps 3
param **.H1.app[0].typename "\"UdpBasicBurst\""
param **.H1.app[0].destAddresses "\"H2\""
param **.H1.app[0].chooseDestAddrMode "\"once\""
param **.H1.app[0].destPort 1000
param **.H1.app[0].startTime uniform(1s,2s)
param **.H1.app[0].stopTime 1200s
param **.H1.app[0].messageLength 172B
param **.H1.app[0].burstDuration exponential(0.352s)
param **.H1.app[0].sleepDuration exponential(0.650s)
param **.H1.app[0].sendInterval 20ms
param **.H2.app[0].typename "\"UdpBasicBurst\""
param **.H2.app[0].localPort 1000
param **.H2.app[0].delayLimit 0ms
param **.H2.app[0].destAddresses "\"\""
param **.H2.app[0].chooseDestAddrMode "\"once\""
param **.H2.app[0].destPort 0
param **.H2.app[0].messageLength 0B
param **.H2.app[0].burstDuration 0s
param **.H2.app[0].sleepDuration 0s
param **.H2.app[0].sendInterval 0ms
param **.H1.app[1].typename "\"UdpBasicApp\""
param **.H1.app[1].destPort 2000
param **.H1.app[1].startTime uniform(1s,2s)
param **.H1.app[1].stopTime 1200s
param **.H1.app[1].sendInterval 40ms
param **.H1.app[1].messageLength 500B
param **.H1.app[1].destAddresses "\"H2\""
param **.H2.app[1].typename "\"UdpSink\""
param **.H2.app[1].localPort 2000
param **.H1.app[2].typename "\"TcpBasicClientApp\""
param **.H1.app[2].connectAddress "\"H2\""
param **.H1.app[2].connectPort 3000
param **.H1.app[2].numRequestsPerSession 1
param **.H1.app[2].requestLength 50B
param **.H1.app[2].replyLength 100B
param **.H1.app[2].thinkTime 40ms
param **.H1.app[2].idleInterval 10s
param **.H1.app[2].stopTime 1200s
param **.H2.app[2].typename "\"TcpGenericServerApp\""
param **.H2.app[2].localPort 3000
param **.edgeDatarate 32kbps
param **.coreDatarate 16kbps
param **.R2.eth[?].ingressTC.typename "\"TC1\""
param **.R9.eth[?].ingressTC.typename "\"TC1\""
param **.ingressTC.numClasses 3
param **.ingressTC.classifier.filters "xmldoc(\"filters.xml\", \"//experiment[@id='default']\")"
param **.ingressTC.marker.dscps "\"AF11 AF21 AF31 AF41 BE\""
param **.queue.typename "\"EtherQosQueue\""
param **.queue.dataQueue.typename "\"DropTailQueue\""
param **.queue.packetCapacity 100
param **.queue.dataQueue.packetCapacity 100
param **.R*.hasOspf true
param **.R*.ospf.ospfConfig "xmldoc(\"OSPFConfig.xml\")"

scalar projectphase3.H1.ethg$o[0].channel packetsDiscarded:count 0
attr interpolationmode none
attr source constant1(messageDiscarded)
scalar projectphase3.H1.ethg$o[0].channel utilization:last 0.001438689858846
attr source timeavg(channelBusy)
scalar projectphase3.H1.ethg$o[0].channel packets:count 52033
attr interpolationmode none
attr source constant1(messageSent)
scalar projectphase3.H1.ethg$o[0].channel packetBytes:sum 21580220
attr interpolationmode none
attr source packetBytes(messageSent)
attr unit B
scalar projectphase3.H1.ethg$o[0].channel throughput:last 143868.99119818
attr source sumPerDuration(packetBits(messageSent))
attr unit bps
scalar projectphase3.H2.ethg$o[0].channel packetsDiscarded:count 0
attr interpolationmode none
attr source constant1(messageDiscarded)
scalar projectphase3.H2.ethg$o[0].channel utilization:last 1.069151506846e-07
attr source timeavg(channelBusy)
scalar projectphase3.H2.ethg$o[0].channel packets:count 21
attr interpolationmode none
attr source constant1(messageSent)
scalar projectphase3.H2.ethg$o[0].channel packetBytes:sum 1606
attr interpolationmode none
attr source packetBytes(messageSent)
attr unit B
scalar projectphase3.H2.ethg$o[0].channel throughput:last 10.691515119707
attr source sumPerDuration(packetBits(messageSent))
attr unit bps
scalar projectphase3.R1.pppg$o[0].channel packetsDiscarded:count 0
attr interpolationmode none
attr source constant1(messageDiscarded)
scalar projectphase3.R1.pppg$o[0].channel utilization:last 0.17353698150128
attr source timeavg(channelBusy)
scalar projectphase3.R1.pppg$o[0].channel packets:count 2184
attr interpolationmode none
attr source constant1(messageSent)
scalar projectphase3.R1.pppg$o[0].channel packetBytes:sum 860832
attr interpolationmode none
attr source packetBytes(messageSent)
attr unit B
scalar projectphase3.R1.pppg$o[0].channel throughput:last 5553.2673701778
attr source sumPerDuration(packetBits(messageSent))
attr unit bps
scalar projectphase3.R1.pppg$o[1].channel packetsDiscarded:count 0
attr interpolationmode none
attr source constant1(messageDiscarded)
scalar projectphase3.R1.pppg$o[1].channel utilization:last 0.39587757394957
attr source timeavg(channelBusy)
scalar projectphase3.R1.pppg$o[1].channel packets:count 2698
attr interpolationmode none
attr source constant1(messageSent)
scalar projectphase3.R1.pppg$o[1].channel packetBytes:sum 981892
attr interpolationmode none
attr source packetBytes(messageSent)
attr unit B
scalar projectphase3.R1.pppg$o[1].channel throughput:last 6334.2327200946
attr source sumPerDuration(packetBits(messageSent))
attr unit bps
scalar projectphase3.R2.pppg$o[0].channel packetsDiscarded:count 0
attr interpolationmode none
attr source constant1(messageDiscarded)
scalar projectphase3.R2.pppg$o[0].channel utilization:last 0.36580040315035
attr source timeavg(channelBusy)
scalar projectphase3.R2.pppg$o[0].channel packets:count 4658
attr interpolationmode none
attr source constant1(messageSent)
scalar projectphase3.R2.pppg$o[0].channel packetBytes:sum 1821876
attr interpolationmode none
attr source packetBytes(messageSent)
attr unit B
scalar projectphase3.R2.pppg$o[0].channel throughput:last 11705.742167613
attr source sumPerDuration(packetBits(messageSent))
attr unit bps
scalar projectphase3.R2.pppg$o[1].channel packetsDiscarded:count 0
attr interpolationmode none
attr source constant1(messageDiscarded)
scalar projectphase3.R2.pppg$o[1].channel utilization:last 0.97412489420799
attr source timeavg(channelBusy)
scalar projectphase3.R2.pppg$o[1].channel packets:count 11353
attr interpolationmode none
attr source constant1(messageSent)
scalar projectphase3.R2.pppg$o[1].channel packetBytes:sum 4832093
attr interpolationmode none
attr source packetBytes(messageSent)
attr unit B
scalar projectphase3.R2.pppg$o[1].channel throughput:last 31172.467930252
attr source sumPerDuration(packetBits(messageSent))
attr unit bps
scalar projectphase3.R2.ethg$o[0].channel packetsDiscarded:count 0
attr interpolationmode none
attr source constant1(messageDiscarded)
scalar projectphase3.R2.ethg$o[0].channel utilization:last 8.2471484359459e-07
attr source timeavg(channelBusy)
scalar projectphase3.R2.ethg$o[0].channel packets:count 145
attr interpolationmode none
attr source constant1(messageSent)
scalar projectphase3.R2.ethg$o[0].channel packetBytes:sum 12784
attr interpolationmode none
attr source packetBytes(messageSent)
attr unit B
scalar projectphase3.R2.ethg$o[0].channel throughput:last 82.471484838291
attr source sumPerDuration(packetBits(messageSent))
attr unit bps
scalar projectphase3.R3.pppg$o[0].channel packetsDiscarded:count 0
attr interpolationmode none
attr source constant1(messageDiscarded)
scalar projectphase3.R3.pppg$o[0].channel utilization:last 0.0098815907067045
attr source timeavg(channelBusy)
scalar projectphase3.R3.pppg$o[0].channel packets:count 263
attr interpolationmode none
attr source constant1(messageSent)
scalar projectphase3.R3.pppg$o[0].channel packetBytes:sum 24509
attr interpolationmode none
attr source packetBytes(messageSent)
attr unit B
scalar projectphase3.R3.pppg$o[0].channel throughput:last 158.11023234874
attr source sumPerDuration(packetBits(messageSent))
attr unit bps
scalar projectphase3.R3.pppg$o[1].channel packetsDiscarded:count 0
attr interpolationmode none
attr source constant1(messageDiscarded)
scalar projectphase3.R3.pppg$o[1].channel utilization:last 0.19724913578515
attr source timeavg(channelBusy)
scalar projectphase3.R3.pppg$o[1].channel packets:count 2637
attr interpolationmode none
attr source constant1(messageSent)
scalar projectphase3.R3.pppg$o[1].channel packetBytes:sum 978465
attr interpolationmode none
attr source packetBytes(messageSent)
attr unit B
scalar projectphase3.R3.pppg$o[1].channel throughput:last 6312.0677790378
attr source sumPerDuration(packetBits(messageSent))
attr unit bps
scalar projectphase3.R4.pppg$o[0].channel packetsDiscarded:count 0
attr interpolationmode none
attr source constant1(messageDiscarded)
scalar projectphase3.R4.pppg$o[0].channel utilization:last 0.0051676654978261
attr source timeavg(channelBusy)
scalar projectphase3.R4.pppg$o[0].channel packets:count 278
attr interpolationmode none
attr source constant1(messageSent)
scalar projectphase3.R4.pppg$o[0].channel packetBytes:sum 25634
attr interpolationmode none
attr source packetBytes(messageSent)
attr unit B
scalar projectphase3.R4.pppg$o[0].channel throughput:last 165.36779621947
attr source sumPerDuration(packetBits(messageSent))
attr unit bps
scalar projectphase3.R4.pppg$o[1].channel packetsDiscarded:count 0
attr interpolationmode none
attr source constant1(messageDiscarded)
scalar projectphase3.R4.pppg$o[1].channel utilization:last 0.0044419482050164
attr source timeavg(channelBusy)
scalar projectphase3.R4.pppg$o[1].channel packets:count 222
attr interpolationmode none
attr source constant1(messageSent)
scalar projectphase3.R4.pppg$o[1].channel packetBytes:sum 22034
attr interpolationmode none
attr source packetBytes(messageSent)
attr unit B
scalar projectphase3.R4.pppg$o[1].channel throughput:last 142.14449173386
attr source sumPerDuration(packetBits(messageSent))
attr unit bps
scalar projectphase3.R4.pppg$o[2].channel packetsDiscarded:count 0
attr interpolationmode none
attr source constant1(messageDiscarded)
scalar projectphase3.R4.pppg$o[2].channel utilization:last 0.98495515592206
attr source timeavg(channelBusy)
scalar projectphase3.R4.pppg$o[2].channel packets:count 11174
attr interpolationmode none
attr source constant1(messageSent)
scalar projectphase3.R4.pppg$o[2].channel packetBytes:sum 4885872
attr interpolationmode none
attr source packetBytes(messageSent)
attr unit B
scalar projectphase3.R4.pppg$o[2].channel throughput:last 31519.04153969
attr source sumPerDuration(packetBits(messageSent))
attr unit bps
scalar projectphase3.R5.pppg$o[0].channel packetsDiscarded:count 0
attr interpolationmode none
attr source constant1(messageDiscarded)
scalar projectphase3.R5.pppg$o[0].channel utilization:last 0.0039667961515913
attr source timeavg(channelBusy)
scalar projectphase3.R5.pppg$o[0].channel packets:count 247
attr interpolationmode none
attr source constant1(messageSent)
scalar projectphase3.R5.pppg$o[0].channel packetBytes:sum 19677
attr interpolationmode none
attr source packetBytes(messageSent)
attr unit B
scalar projectphase3.R5.pppg$o[0].channel throughput:last 126.93939613247
attr source sumPerDuration(packetBits(messageSent))
attr unit bps
scalar projectphase3.R5.pppg$o[1].channel packetsDiscarded:count 0
attr interpolationmode none
attr source constant1(messageDiscarded)
scalar projectphase3.R5.pppg$o[1].channel utilization:last 0.004269182473291
attr source timeavg(channelBusy)
scalar projectphase3.R5.pppg$o[1].channel packets:count 215
attr interpolationmode none
attr source constant1(messageSent)
scalar projectphase3.R5.pppg$o[1].channel packetBytes:sum 21177
attr interpolationmode none
attr source packetBytes(messageSent)
attr unit B
scalar projectphase3.R5.pppg$o[1].channel throughput:last 136.61590472906
attr source sumPerDuration(packetBits(messageSent))
attr unit bps
scalar projectphase3.R5.pppg$o[2].channel packetsDiscarded:count 0
attr interpolationmode none
attr source constant1(messageDiscarded)
scalar projectphase3.R5.pppg$o[2].channel utilization:last 0.98511911693381
attr source timeavg(channelBusy)
scalar projectphase3.R5.pppg$o[2].channel packets:count 11221
attr interpolationmode none
attr source constant1(messageSent)
scalar projectphase3.R5.pppg$o[2].channel packetBytes:sum 4886705
attr interpolationmode none
attr source packetBytes(messageSent)
attr unit B
scalar projectphase3.R5.pppg$o[2].channel throughput:last 31524.288369477
attr source sumPerDuration(packetBits(messageSent))
attr unit bps
scalar projectphase3.R6.pppg$o[0].channel packetsDiscarded:count 0
attr interpolationmode none
attr source constant1(messageDiscarded)
scalar projectphase3.R6.pppg$o[0].channel utilization:last 0.005160804431504
attr source timeavg(channelBusy)
scalar projectphase3.R6.pppg$o[0].channel packets:count 280
attr interpolationmode none
attr source constant1(messageSent)
scalar projectphase3.R6.pppg$o[0].channel packetBytes:sum 25600
attr interpolationmode none
attr source packetBytes(messageSent)
attr unit B
scalar projectphase3.R6.pppg$o[0].channel throughput:last 165.14823877423
attr source sumPerDuration(packetBits(messageSent))
attr unit bps
scalar projectphase3.R6.pppg$o[1].channel packetsDiscarded:count 0
attr interpolationmode none
attr source constant1(messageDiscarded)
scalar projectphase3.R6.pppg$o[1].channel utilization:last 0.0032513082223665
attr source timeavg(channelBusy)
scalar projectphase3.R6.pppg$o[1].channel packets:count 200
attr interpolationmode none
attr source constant1(messageSent)
scalar projectphase3.R6.pppg$o[1].channel packetBytes:sum 16128
attr interpolationmode none
attr source packetBytes(messageSent)
attr unit B
scalar projectphase3.R6.pppg$o[1].channel throughput:last 104.04343620576
attr source sumPerDuration(packetBits(messageSent))
attr unit bps
scalar projectphase3.R6.pppg$o[2].channel packetsDiscarded:count 0
attr interpolationmode none
attr source constant1(messageDiscarded)
scalar projectphase3.R6.pppg$o[2].channel utilization:last 0.98437677509576
attr source timeavg(channelBusy)
scalar projectphase3.R6.pppg$o[2].channel packets:count 11163
attr interpolationmode none
attr source constant1(messageSent)
scalar projectphase3.R6.pppg$o[2].channel packetBytes:sum 4882971
attr interpolationmode none
attr source packetBytes(messageSent)
attr unit B
scalar projectphase3.R6.pppg$o[2].channel throughput:last 31500.533076526
attr source sumPerDuration(packetBits(messageSent))
attr unit bps
scalar projectphase3.R7.pppg$o[0].channel packetsDiscarded:count 0
attr interpolationmode none
attr source constant1(messageDiscarded)
scalar projectphase3.R7.pppg$o[0].channel utilization:last 0.0030010797760021
attr source timeavg(channelBusy)
scalar projectphase3.R7.pppg$o[0].channel packets:count 189
attr interpolationmode none
attr source constant1(messageSent)
scalar projectphase3.R7.pppg$o[0].channel packetBytes:sum 14887
attr interpolationmode none
attr source packetBytes(messageSent)
attr unit B
scalar projectphase3.R7.pppg$o[0].channel throughput:last 96.036004829005
attr source sumPerDuration(packetBits(messageSent))
attr unit bps
scalar projectphase3.R7.pppg$o[1].channel packetsDiscarded:count 0
attr interpolationmode none
attr source constant1(messageDiscarded)
scalar projectphase3.R7.pppg$o[1].channel utilization:last 0.0087166978137336
attr source timeavg(channelBusy)
scalar projectphase3.R7.pppg$o[1].channel packets:count 220
attr interpolationmode none
attr source constant1(messageSent)
scalar projectphase3.R7.pppg$o[1].channel packetBytes:sum 21620
attr interpolationmode none
attr source packetBytes(messageSent)
attr unit B
scalar projectphase3.R7.pppg$o[1].channel throughput:last 139.47138239911
attr source sumPerDuration(packetBits(messageSent))
attr unit bps
scalar projectphase3.R12.pppg$o[0].channel packetsDiscarded:count 0
attr interpolationmode none
attr source constant1(messageDiscarded)
scalar projectphase3.R12.pppg$o[0].channel utilization:last 0.0065117052762543
attr source timeavg(channelBusy)
scalar projectphase3.R12.pppg$o[0].channel packets:count 201
attr interpolationmode none
attr source constant1(messageSent)
scalar projectphase3.R12.pppg$o[0].channel packetBytes:sum 16151
attr interpolationmode none
attr source packetBytes(messageSent)
attr unit B
scalar projectphase3.R12.pppg$o[0].channel throughput:last 104.19043495597
attr source sumPerDuration(packetBits(messageSent))
attr unit bps
scalar projectphase3.R12.pppg$o[1].channel packetsDiscarded:count 0
attr interpolationmode none
attr source constant1(messageDiscarded)
scalar projectphase3.R12.pppg$o[1].channel utilization:last 0.0040811507966694
attr source timeavg(channelBusy)
scalar projectphase3.R12.pppg$o[1].channel packets:count 208
attr interpolationmode none
attr source constant1(messageSent)
scalar projectphase3.R12.pppg$o[1].channel packetBytes:sum 20244
attr interpolationmode none
attr source packetBytes(messageSent)
attr unit B
scalar projectphase3.R12.pppg$o[1].channel throughput:last 130.59880012812
attr source sumPerDuration(packetBits(messageSent))
attr unit bps
scalar projectphase3.R8.pppg$o[0].channel packetsDiscarded:count 0
attr interpolationmode none
attr source constant1(messageDiscarded)
scalar projectphase3.R8.pppg$o[0].channel utilization:last 0.0031879866648464
attr source timeavg(channelBusy)
scalar projectphase3.R8.pppg$o[0].channel packets:count 202
attr interpolationmode none
attr source constant1(messageSent)
scalar projectphase3.R8.pppg$o[0].channel packetBytes:sum 15814
attr interpolationmode none
attr source packetBytes(messageSent)
attr unit B
scalar projectphase3.R8.pppg$o[0].channel throughput:last 102.01711571788
attr source sumPerDuration(packetBits(messageSent))
attr unit bps
scalar projectphase3.R8.pppg$o[1].channel packetsDiscarded:count 0
attr interpolationmode none
attr source constant1(messageDiscarded)
scalar projectphase3.R8.pppg$o[1].channel utilization:last 0.0042371319297344
attr source timeavg(channelBusy)
scalar projectphase3.R8.pppg$o[1].channel packets:count 210
attr interpolationmode none
attr source constant1(messageSent)
scalar projectphase3.R8.pppg$o[1].channel packetBytes:sum 21018
attr interpolationmode none
attr source packetBytes(messageSent)
attr unit B
scalar projectphase3.R8.pppg$o[1].channel throughput:last 135.59027182954
attr source sumPerDuration(packetBits(messageSent))
attr unit bps
scalar projectphase3.R8.pppg$o[2].channel packetsDiscarded:count 0
attr interpolationmode none
attr source constant1(messageDiscarded)
scalar projectphase3.R8.pppg$o[2].channel utilization:last 0.98536705930665
attr source timeavg(channelBusy)
scalar projectphase3.R8.pppg$o[2].channel packets:count 11231
attr interpolationmode none
attr source constant1(messageSent)
scalar projectphase3.R8.pppg$o[2].channel packetBytes:sum 4887859
attr interpolationmode none
attr source packetBytes(messageSent)
attr unit B
scalar projectphase3.R8.pppg$o[2].channel throughput:last 31532.222652774
attr source sumPerDuration(packetBits(messageSent))
attr unit bps
scalar projectphase3.R9.pppg$o[0].channel packetsDiscarded:count 0
attr interpolationmode none
attr source constant1(messageDiscarded)
scalar projectphase3.R9.pppg$o[0].channel utilization:last 0.0030366066116138
attr source timeavg(channelBusy)
scalar projectphase3.R9.pppg$o[0].channel packets:count 193
attr interpolationmode none
attr source constant1(messageSent)
scalar projectphase3.R9.pppg$o[0].channel packetBytes:sum 15063
attr interpolationmode none
attr source packetBytes(messageSent)
attr unit B
scalar projectphase3.R9.pppg$o[0].channel throughput:last 97.172880780028
attr source sumPerDuration(packetBits(messageSent))
attr unit bps
scalar projectphase3.R9.pppg$o[1].channel packetsDiscarded:count 0
attr interpolationmode none
attr source constant1(messageDiscarded)
scalar projectphase3.R9.pppg$o[1].channel utilization:last 0.0051812090063067
attr source timeavg(channelBusy)
scalar projectphase3.R9.pppg$o[1].channel packets:count 283
attr interpolationmode none
attr source constant1(messageSent)
scalar projectphase3.R9.pppg$o[1].channel packetBytes:sum 25701
attr interpolationmode none
attr source packetBytes(messageSent)
attr unit B
scalar projectphase3.R9.pppg$o[1].channel throughput:last 165.80119506141
attr source sumPerDuration(packetBits(messageSent))
attr unit bps
scalar projectphase3.R9.ethg$o[0].channel packetsDiscarded:count 0
attr interpolationmode none
attr source constant1(messageDiscarded)
scalar projectphase3.R9.ethg$o[0].channel utilization:last 0.00032789459852134
attr source timeavg(channelBusy)
scalar projectphase3.R9.ethg$o[0].channel packets:count 11093
attr interpolationmode none
attr source constant1(messageSent)
scalar projectphase3.R9.ethg$o[0].channel packetBytes:sum 5082754
attr interpolationmode none
attr source packetBytes(messageSent)
attr unit B
scalar projectphase3.R9.ethg$o[0].channel throughput:last 32789.460042518
attr source sumPerDuration(packetBits(messageSent))
attr unit bps
scalar projectphase3.R10.pppg$o[0].channel packetsDiscarded:count 0
attr interpolationmode none
attr source constant1(messageDiscarded)
scalar projectphase3.R10.pppg$o[0].channel utilization:last 0.0030134179304037
attr source timeavg(channelBusy)
scalar projectphase3.R10.pppg$o[0].channel packets:count 192
attr interpolationmode none
attr source constant1(messageSent)
scalar projectphase3.R10.pppg$o[0].channel packetBytes:sum 14948
attr interpolationmode none
attr source packetBytes(messageSent)
attr unit B
scalar projectphase3.R10.pppg$o[0].channel throughput:last 96.430831759259
attr source sumPerDuration(packetBits(messageSent))
attr unit bps
scalar projectphase3.R10.pppg$o[1].channel packetsDiscarded:count 0
attr interpolationmode none
attr source constant1(messageDiscarded)
scalar projectphase3.R10.pppg$o[1].channel utilization:last 0.0085312463143345
attr source timeavg(channelBusy)
scalar projectphase3.R10.pppg$o[1].channel packets:count 212
attr interpolationmode none
attr source constant1(messageSent)
scalar projectphase3.R10.pppg$o[1].channel packetBytes:sum 21160
attr interpolationmode none
attr source packetBytes(messageSent)
attr unit B
scalar projectphase3.R10.pppg$o[1].channel throughput:last 136.50406868708
attr source sumPerDuration(packetBits(messageSent))
attr unit bps
scalar projectphase3.R11.pppg$o[0].channel packetsDiscarded:count 0
attr interpolationmode none
attr source constant1(messageDiscarded)
scalar projectphase3.R11.pppg$o[0].channel utilization:last 0.0061941222053798
attr source timeavg(channelBusy)
scalar projectphase3.R11.pppg$o[0].channel packets:count 197
attr interpolationmode none
attr source constant1(messageSent)
scalar projectphase3.R11.pppg$o[0].channel packetBytes:sum 15363
attr interpolationmode none
attr source packetBytes(messageSent)
attr unit B
scalar projectphase3.R11.pppg$o[0].channel throughput:last 99.108952224965
attr source sumPerDuration(packetBits(messageSent))
attr unit bps
scalar projectphase3.R11.pppg$o[1].channel packetsDiscarded:count 0
attr interpolationmode none
attr source constant1(messageDiscarded)
scalar projectphase3.R11.pppg$o[1].channel utilization:last 0.0042114814747308
attr source timeavg(channelBusy)
scalar projectphase3.R11.pppg$o[1].channel packets:count 209
attr interpolationmode none
attr source constant1(messageSent)
scalar projectphase3.R11.pppg$o[1].channel packetBytes:sum 20891
attr interpolationmode none
attr source packetBytes(messageSent)
attr unit B
scalar projectphase3.R11.pppg$o[1].channel throughput:last 134.76944483566
attr source sumPerDuration(packetBits(messageSent))
attr unit bps
scalar projectphase3.H1.lo[0].lo rcvdPkFromHl:count 0
attr interpolationmode none
attr source packetReceivedFromUpper
attr title "packets received from higher layer, count"
scalar projectphase3.H1.lo[0].lo rcvdPkFromHl:sum(packetBytes) 0
attr interpolationmode none
attr source packetReceivedFromUpper
attr title "packets received from higher layer, sum(packetBytes)"
scalar projectphase3.H1.lo[0].lo passedUpPk:count 0
attr interpolationmode none
attr source packetSentToUpper
attr title "packets passed to higher layer, count"
scalar projectphase3.H1.lo[0].lo passedUpPk:sum(packetBytes) 0
attr interpolationmode none
attr source packetSentToUpper
attr title "packets passed to higher layer, sum(packetBytes)"
scalar projectphase3.H1.eth[0].mac.queue.classifier packetPushed:count 52033
attr interpolationmode none
attr title "packets pushed, count"
scalar projectphase3.H1.eth[0].mac.queue.classifier packetPushed:sum(packetBytes) 21163956
attr interpolationmode none
attr title "packets pushed, sum(packetBytes)"
scalar projectphase3.H1.eth[0].mac.queue.classifier packetDropped:count 0
attr interpolationmode none
attr title "packets dropped, count"
scalar projectphase3.H1.eth[0].mac.queue.classifier packetDropped:sum(packetBytes) 0
attr interpolationmode none
attr title "packets dropped, sum(packetBytes)"
scalar projectphase3.H1.eth[0].mac.queue.pauseQueue packetPopped:count 0
attr interpolationmode none
attr title "packet popped, count"
scalar projectphase3.H1.eth[0].mac.queue.pauseQueue packetPopped:sum(packetBytes) 0
attr interpolationmode none
attr title "packet popped, sum(packetBytes)"
statistic projectphase3.H1.eth[0].mac.queue.pauseQueue queueingTime:histogram
field count 0
field mean nan
field stddev nan
field min nan
field max nan
field sum 0
field sqrsum 0
attr interpolationmode none
attr source queueingTime(packetPopped)
attr title "queueing times, histogram"
attr unit s
bin	-inf	0
bin	0	0
bin	1	0
scalar projectphase3.H1.eth[0].mac.queue.pauseQueue queueLength:max nan
attr interpolationmode sample-hold
attr source "count(packetPushed) - count(packetPopped) - count(packetRemoved) - count(packetDropped)"
attr title "queue length, max"
scalar projectphase3.H1.eth[0].mac.queue.pauseQueue queueLength:timeavg nan
attr interpolationmode sample-hold
attr source "count(packetPushed) - count(packetPopped) - count(packetRemoved) - count(packetDropped)"
attr title "queue length, timeavg"
scalar projectphase3.H1.eth[0].mac.queue.pauseQueue packetPushed:count 0
attr interpolationmode none
attr title "packet pushed, count"
scalar projectphase3.H1.eth[0].mac.queue.pauseQueue packetPushed:sum(packetBytes) 0
attr interpolationmode none
attr title "packet pushed, sum(packetBytes)"
scalar projectphase3.H1.eth[0].mac.queue.pauseQueue packetDropQueueOverflow:count 0
attr interpolationmode none
attr source packetDropReasonIsQueueOverflow(packetDropped)
attr title "packet drops: queue overflow, count"
scalar projectphase3.H1.eth[0].mac.queue.pauseQueue packetDropQueueOverflow:sum(packetBytes) 0
attr interpolationmode none
attr source packetDropReasonIsQueueOverflow(packetDropped)
attr title "packet drops: queue overflow, sum(packetBytes)"
scalar projectphase3.H1.eth[0].mac.queue.pauseQueue packetRemoved:count 0
attr interpolationmode none
attr title "packets removed, count"
scalar projectphase3.H1.eth[0].mac.queue.pauseQueue packetRemoved:sum(packetBytes) 0
attr interpolationmode none
attr title "packets removed, sum(packetBytes)"
scalar projectphase3.H1.eth[0].mac.queue.dataQueue packetPopped:count 52033
attr interpolationmode none
attr title "packet popped, count"
scalar projectphase3.H1.eth[0].mac.queue.dataQueue packetPopped:sum(packetBytes) 21163956
attr interpolationmode none
attr title "packet popped, sum(packetBytes)"
statistic projectphase3.H1.eth[0].mac.queue.dataQueue queueingTime:histogram
field count 52033
field mean 3.9292176887744e-09
field stddev 2.0561404689683e-07
field min 0
field max 1.5926908e-05
field sum 0.000204448984
field sqrsum 2.2005672795526e-09
attr interpolationmode none
attr source queueingTime(packetPopped)
attr title "queueing times, histogram"
attr unit s
bin	-inf	0
bin	0	52009
bin	2e-07	0
bin	4e-07	0
bin	6e-07	0
bin	8e-07	0
bin	1e-06	0
bin	1.2e-06	0
bin	1.4e-06	0
bin	1.6e-06	0
bin	1.8e-06	0
bin	2e-06	0
bin	2.2e-06	0
bin	2.4e-06	0
bin	2.6e-06	0
bin	2.8e-06	0
bin	3e-06	0
bin	3.2e-06	0
bin	3.4e-06	0
bin	3.6e-06	0
bin	3.8e-06	0
bin	4e-06	0
bin	4.2e-06	0
bin	4.4e-06	10
bin	4.6e-06	0
bin	4.8e-06	0
bin	5e-06	0
bin	5.2e-06	0
bin	5.4e-06	0
bin	5.6e-06	0
bin	5.8e-06	0
bin	6e-06	0
bin	6.2e-06	0
bin	6.4e-06	0
bin	6.6e-06	3
bin	6.8e-06	0
bin	7e-06	0
bin	7.2e-06	0
bin	7.4e-06	0
bin	7.6e-06	0
bin	7.8e-06	0
bin	8e-06	0
bin	8.2e-06	0
bin	8.4e-06	0
bin	8.6e-06	0
bin	8.8e-06	0
bin	9e-06	0
bin	9.2e-06	0
bin	9.4e-06	0
bin	9.6e-06	0
bin	9.8e-06	4
bin	1e-05	0
bin	1.02e-05	2
bin	1.04e-05	0
bin	1.06e-05	0
bin	1.08e-05	0
bin	1.1e-05	0
bin	1.12e-05	0
bin	1.14e-05	0
bin	1.16e-05	0
bin	1.18e-05	0
bin	1.2e-05	0
bin	1.22e-05	0
bin	1.24e-05	0
bin	1.26e-05	0
bin	1.28e-05	0
bin	1.3e-05	0
bin	1.32e-05	0
bin	1.34e-05	0
bin	1.36e-05	0
bin	1.38e-05	0
bin	1.4e-05	0
bin	1.42e-05	0
bin	1.44e-05	0
bin	1.46e-05	0
bin	1.48e-05	0
bin	1.5e-05	0
bin	1.52e-05	0
bin	1.54e-05	0
bin	1.56e-05	0
bin	1.58e-05	5
bin	1.6e-05	0
scalar projectphase3.H1.eth[0].mac.queue.dataQueue queueLength:max 1
attr interpolationmode sample-hold
attr source "count(packetPushed) - count(packetPopped) - count(packetRemoved) - count(packetDropped)"
attr title "queue length, max"
scalar projectphase3.H1.eth[0].mac.queue.dataQueue queueLength:timeavg 1.6369013931145e-07
attr interpolationmode sample-hold
attr source "count(packetPushed) - count(packetPopped) - count(packetRemoved) - count(packetDropped)"
attr title "queue length, timeavg"
scalar projectphase3.H1.eth[0].mac.queue.dataQueue packetPushed:count 52033
attr interpolationmode none
attr title "packet pushed, count"
scalar projectphase3.H1.eth[0].mac.queue.dataQueue packetPushed:sum(packetBytes) 21163956
attr interpolationmode none
attr title "packet pushed, sum(packetBytes)"
scalar projectphase3.H1.eth[0].mac.queue.dataQueue packetDropQueueOverflow:count 0
attr interpolationmode none
attr source packetDropReasonIsQueueOverflow(packetDropped)
attr title "packet drops: queue overflow, count"
scalar projectphase3.H1.eth[0].mac.queue.dataQueue packetDropQueueOverflow:sum(packetBytes) 0
attr interpolationmode none
attr source packetDropReasonIsQueueOverflow(packetDropped)
attr title "packet drops: queue overflow, sum(packetBytes)"
scalar projectphase3.H1.eth[0].mac.queue.dataQueue packetRemoved:count 0
attr interpolationmode none
attr title "packets removed, count"
scalar projectphase3.H1.eth[0].mac.queue.dataQueue packetRemoved:sum(packetBytes) 0
attr interpolationmode none
attr title "packets removed, sum(packetBytes)"
scalar projectphase3.H1.eth[0].mac.queue.scheduler packetPopped:count 52033
attr interpolationmode none
attr title "packets popped, count"
scalar projectphase3.H1.eth[0].mac.queue.scheduler packetPopped:sum(packetBytes) 21163956
attr interpolationmode none
attr title "packets popped, sum(packetBytes)"
scalar projectphase3.H1.eth[0].mac.queue packetPopped:count 52033
attr interpolationmode none
attr source localSignal(packetPopped)
attr title "packets popped, count"
scalar projectphase3.H1.eth[0].mac.queue packetPopped:sum(packetBytes) 21163956
attr interpolationmode none
attr source localSignal(packetPopped)
attr title "packets popped, sum(packetBytes)"
statistic projectphase3.H1.eth[0].mac.queue queueingTime:histogram
field count 156099
field mean 3.9292176887744e-09
field stddev 2.0561272968133e-07
field min 0
field max 1.5926908e-05
field sum 0.000613346952
field sqrsum 6.6017018386578e-09
attr interpolationmode none
attr source queueingTime(packetPopped)
attr title "queueing times, histogram"
attr unit s
bin	-inf	0
bin	0	156027
bin	2e-07	0
bin	4e-07	0
bin	6e-07	0
bin	8e-07	0
bin	1e-06	0
bin	1.2e-06	0
bin	1.4e-06	0
bin	1.6e-06	0
bin	1.8e-06	0
bin	2e-06	0
bin	2.2e-06	0
bin	2.4e-06	0
bin	2.6e-06	0
bin	2.8e-06	0
bin	3e-06	0
bin	3.2e-06	0
bin	3.4e-06	0
bin	3.6e-06	0
bin	3.8e-06	0
bin	4e-06	0
bin	4.2e-06	0
bin	4.4e-06	30
bin	4.6e-06	0
bin	4.8e-06	0
bin	5e-06	0
bin	5.2e-06	0
bin	5.4e-06	0
bin	5.6e-06	0
bin	5.8e-06	0
bin	6e-06	0
bin	6.2e-06	0
bin	6.4e-06	0
bin	6.6e-06	9
bin	6.8e-06	0
bin	7e-06	0
bin	7.2e-06	0
bin	7.4e-06	0
bin	7.6e-06	0
bin	7.8e-06	0
bin	8e-06	0
bin	8.2e-06	0
bin	8.4e-06	0
bin	8.6e-06	0
bin	8.8e-06	0
bin	9e-06	0
bin	9.2e-06	0
bin	9.4e-06	0
bin	9.6e-06	0
bin	9.8e-06	12
bin	1e-05	0
bin	1.02e-05	6
bin	1.04e-05	0
bin	1.06e-05	0
bin	1.08e-05	0
bin	1.1e-05	0
bin	1.12e-05	0
bin	1.14e-05	0
bin	1.16e-05	0
bin	1.18e-05	0
bin	1.2e-05	0
bin	1.22e-05	0
bin	1.24e-05	0
bin	1.26e-05	0
bin	1.28e-05	0
bin	1.3e-05	0
bin	1.32e-05	0
bin	1.34e-05	0
bin	1.36e-05	0
bin	1.38e-05	0
bin	1.4e-05	0
bin	1.42e-05	0
bin	1.44e-05	0
bin	1.46e-05	0
bin	1.48e-05	0
bin	1.5e-05	0
bin	1.52e-05	0
bin	1.54e-05	0
bin	1.56e-05	0
bin	1.58e-05	15
bin	1.6e-05	0
scalar projectphase3.H1.eth[0].mac.queue queueLength:max 1
attr interpolationmode sample-hold
attr source "count(localSignal(packetPushed)) - count(localSignal(packetPopped)) - count(localSignal(packetRemoved)) - count(packetDropped)"
attr title "queue length, max"
scalar projectphase3.H1.eth[0].mac.queue queueLength:timeavg 1.6369013931145e-07
attr interpolationmode sample-hold
attr source "count(localSignal(packetPushed)) - count(localSignal(packetPopped)) - count(localSignal(packetRemoved)) - count(packetDropped)"
attr title "queue length, timeavg"
scalar projectphase3.H1.eth[0].mac.queue packetPushed:count 52033
attr interpolationmode none
attr source localSignal(packetPushed)
attr title "packets pushed, count"
scalar projectphase3.H1.eth[0].mac.queue packetPushed:sum(packetBytes) 21163956
attr interpolationmode none
attr source localSignal(packetPushed)
attr title "packets pushed, sum(packetBytes)"
scalar projectphase3.H1.eth[0].mac.queue packetDropQueueOverflow:count 0
attr interpolationmode none
attr source packetDropReasonIsQueueOverflow(packetDropped)
attr title "packets dropped: queue overflow, count"
scalar projectphase3.H1.eth[0].mac.queue packetDropQueueOverflow:sum(packetBytes) 0
attr interpolationmode none
attr source packetDropReasonIsQueueOverflow(packetDropped)
attr title "packets dropped: queue overflow, sum(packetBytes)"
scalar projectphase3.H1.eth[0].mac.queue packetRemoved:count 0
attr interpolationmode none
attr source localSignal(packetRemoved)
attr title "packets removed, count"
scalar projectphase3.H1.eth[0].mac.queue packetRemoved:sum(packetBytes) 0
attr interpolationmode none
attr source localSignal(packetRemoved)
attr title "packets removed, sum(packetBytes)"
scalar projectphase3.H1.eth[0].mac "simulated time" 1250
scalar projectphase3.H1.eth[0].mac full-duplex 1
scalar projectphase3.H1.eth[0].mac "frames/sec sent" 41.6264
scalar projectphase3.H1.eth[0].mac "frames/sec rcvd" 0.116
scalar projectphase3.H1.eth[0].mac "bits/sec sent" 135449.3184
scalar projectphase3.H1.eth[0].mac "bits/sec rcvd" 74.3936
scalar projectphase3.H1.eth[0].mac "rx channel idle (%)" 100
scalar projectphase3.H1.eth[0].mac "rx channel utilization (%)" 0
scalar projectphase3.H1.eth[0].mac txPk:count 52033
attr interpolationmode none
attr source packetSentToLower
attr title "packets transmitted, count"
scalar projectphase3.H1.eth[0].mac txPk:sum(packetBytes) 21163956
attr interpolationmode none
attr source packetSentToLower
attr title "packets transmitted, sum(packetBytes)"
scalar projectphase3.H1.eth[0].mac packetReceivedFromUpper:count 52033
attr interpolationmode none
attr source packetReceivedFromUpper
attr title "packet bytes from higher layer, count"
scalar projectphase3.H1.eth[0].mac packetReceivedFromUpper:sum(packetBytes) 21163692
attr interpolationmode none
attr source packetReceivedFromUpper
attr title "packet bytes from higher layer, sum(packetBytes)"
scalar projectphase3.H1.eth[0].mac passedUpPk:count 145
attr interpolationmode none
attr source packetSentToUpper
attr title "packets passed to higher layer, count"
scalar projectphase3.H1.eth[0].mac passedUpPk:sum(packetBytes) 11624
attr interpolationmode none
attr source packetSentToUpper
attr title "packets passed to higher layer, sum(packetBytes)"
scalar projectphase3.H1.eth[0].mac packetDropIncorrectlyReceived:count 0
attr interpolationmode none
attr source packetDropReasonIsIncorrectlyReceived(packetDropped)
attr title "packet drop: incorrectly received, count"
scalar projectphase3.H1.eth[0].mac packetDropIncorrectlyReceived:sum(packetBytes) 0
attr interpolationmode none
attr source packetDropReasonIsIncorrectlyReceived(packetDropped)
attr title "packet drop: incorrectly received, sum(packetBytes)"
scalar projectphase3.H1.eth[0].mac packetDropInterfaceDown:count 0
attr interpolationmode none
attr source packetDropReasonIsInterfaceDown(packetDropped)
attr title "packet drop: interface down, count"
scalar projectphase3.H1.eth[0].mac packetDropInterfaceDown:sum(packetBytes) 0
attr interpolationmode none
attr source packetDropReasonIsInterfaceDown(packetDropped)
attr title "packet drop: interface down, sum(packetBytes)"
scalar projectphase3.H1.eth[0].mac packetDropNotAddressedToUs:count 0
attr interpolationmode none
attr source packetDropReasonIsNotAddressedToUs(packetDropped)
attr title "packet drop: not addressed to us, count"
scalar projectphase3.H1.eth[0].mac packetDropNotAddressedToUs:sum(packetBytes) 0
attr interpolationmode none
attr source packetDropReasonIsNotAddressedToUs(packetDropped)
attr title "packet drop: not addressed to us, sum(packetBytes)"
scalar projectphase3.H1.eth[0].mac rxPausePkUnits:count 0
attr interpolationmode none
attr title "pause units received, count"
scalar projectphase3.H1.eth[0].mac rxPausePkUnits:sum 0
attr interpolationmode none
attr title "pause units received, sum"
scalar projectphase3.H1.eth[0].mac txPausePkUnits:count 0
attr interpolationmode none
attr title "pause units sent, count"
scalar projectphase3.H1.eth[0].mac txPausePkUnits:sum 0
attr interpolationmode none
attr title "pause units sent, sum"
scalar projectphase3.H1.eth[0].mac rxPkOk:count 145
attr interpolationmode none
attr source rxPkOk
attr title "packets received OK, count"
scalar projectphase3.H1.eth[0].mac rxPkOk:sum(packetBytes) 11624
attr interpolationmode none
attr source rxPkOk
attr title "packets received OK, sum(packetBytes)"
scalar projectphase3.H1.eth[0].encap pauseSent:count 0
attr title "pause sent, count"
scalar projectphase3.H1.eth[0].encap pauseSent:sum 0
attr title "pause sent, sum"
scalar projectphase3.H1.eth[0].encap decapPk:count 145
attr interpolationmode none
attr source decapPk
attr title "packets decapsulated, count"
scalar projectphase3.H1.eth[0].encap decapPk:sum(packetBytes) 9014
attr interpolationmode none
attr source decapPk
attr title "packets decapsulated, sum(packetBytes)"
scalar projectphase3.H1.eth[0].encap encapPk:count 52033
attr interpolationmode none
attr source encapPk
attr title "packets encapsulated, count"
scalar projectphase3.H1.eth[0].encap encapPk:sum(packetBytes) 20227098
attr interpolationmode none
attr source encapPk
attr title "packets encapsulated, sum(packetBytes)"
scalar projectphase3.H1.ipv4.ip packetDropAddressResolutionFailed:count 0
attr interpolationmode none
attr source packetDropReasonIsAddressResolutionFailed(packetDropped)
attr title "packet drop: address resolution failed, count"
scalar projectphase3.H1.ipv4.ip packetDropAddressResolutionFailed:sum(packetBytes) 0
attr interpolationmode none
attr source packetDropReasonIsAddressResolutionFailed(packetDropped)
attr title "packet drop: address resolution failed, sum(packetBytes)"
scalar projectphase3.H1.ipv4.ip packetDropHopLimitReached:count 0
attr interpolationmode none
attr source packetDropReasonIsHopLimitReached(packetDropped)
attr title "packet drop: hop limit reached, count"
scalar projectphase3.H1.ipv4.ip packetDropHopLimitReached:sum(packetBytes) 0
attr interpolationmode none
attr source packetDropReasonIsHopLimitReached(packetDropped)
attr title "packet drop: hop limit reached, sum(packetBytes)"
scalar projectphase3.H1.ipv4.ip packetDropForwardingDisabled:count 0
attr interpolationmode none
attr source packetDropReasonIsForwardingDisabled(packetDropped)
attr title "packet drop: forwarding disabled, count"
scalar projectphase3.H1.ipv4.ip packetDropForwardingDisabled:sum(packetBytes) 0
attr interpolationmode none
attr source packetDropReasonIsForwardingDisabled(packetDropped)
attr title "packet drop: forwarding disabled, sum(packetBytes)"
scalar projectphase3.H1.ipv4.ip packetDropNoInterfaceFound:count 0
attr interpolationmode none
attr source packetDropReasonIsNoInterfaceFound(packetDropped)
attr title "packet drop: no interface found, count"
scalar projectphase3.H1.ipv4.ip packetDropNoInterfaceFound:sum(packetBytes) 0
attr interpolationmode none
attr source packetDropReasonIsNoInterfaceFound(packetDropped)
attr title "packet drop: no interface found, sum(packetBytes)"
scalar projectphase3.H1.ipv4.ip packetDropNoRouteFound:count 0
attr interpolationmode none
attr source packetDropReasonIsNoRouteFound(packetDropped)
attr title "packet drop: no route found, count"
scalar projectphase3.H1.ipv4.ip packetDropNoRouteFound:sum(packetBytes) 0
attr interpolationmode none
attr source packetDropReasonIsNoRouteFound(packetDropped)
attr title "packet drop: no route found, sum(packetBytes)"
scalar projectphase3.H1.ipv4.ip packetDropUndefined:count 0
attr interpolationmode none
attr source packetDropReasonIsUndefined(packetDropped)
attr title "packet drop: undefined, count"
scalar projectphase3.H1.ipv4.ip packetDropUndefined:sum(packetBytes) 0
attr interpolationmode none
attr source packetDropReasonIsUndefined(packetDropped)
attr title "packet drop: undefined, sum(packetBytes)"
scalar projectphase3.H1.ipv4.arp arpReplySent:count 0
attr source arpReplySent
attr title "ARP replies sent, count"
scalar projectphase3.H1.ipv4.arp arpReplySent:sum(packetBytes) 0
attr source arpReplySent
attr title "ARP replies sent, sum(packetBytes)"
scalar projectphase3.H1.ipv4.arp arpRequestSent:count 10
attr source arpRequestSent
attr title "ARP request sent, count"
scalar projectphase3.H1.ipv4.arp arpRequestSent:sum(packetBytes) 280
attr source arpRequestSent
attr title "ARP request sent, sum(packetBytes)"
scalar projectphase3.H1.ipv4.arp arpResolutionFailed:count 0
attr title "ARP failed resolutions, count"
scalar projectphase3.H1.ipv4.arp arpResolutionCompleted:count 10
attr title "ARP completed resolutions, count"
scalar projectphase3.H1.ipv4.arp arpResolutionInitiated:count 10
attr title "ARP initiated resolutions, count"
scalar projectphase3.H1.udp packetReceived:count 0
attr interpolationmode none
attr source packetReceived
attr title "packets received, count"
scalar projectphase3.H1.udp packetReceived:sum(packetBytes) 0
attr interpolationmode none
attr source packetReceived
attr title "packets received, sum(packetBytes)"
scalar projectphase3.H1.udp packetSent:count 51988
attr interpolationmode none
attr source packetSent
attr title "packets sent, count"
scalar projectphase3.H1.udp packetSent:sum(packetBytes) 19185048
attr interpolationmode none
attr source packetSent
attr title "packets sent, sum(packetBytes)"
scalar projectphase3.H1.udp passedUpPk:count 0
attr interpolationmode none
attr source packetSentToUpper
attr title "packets passed up, count"
scalar projectphase3.H1.udp droppedPkWrongPort:count 0
attr interpolationmode none
attr source packetDropReasonIsNoPortFound(packetDropped)
attr title "packets dropped (wrong port), count"
scalar projectphase3.H1.udp droppedPkBadChecksum:count 0
attr interpolationmode none
attr source packetDropReasonIsIncorrectlyReceived(packetDropped)
attr title "packets dropped (checksum error), count"
scalar projectphase3.H1.app[0] "Total sent" 22027
scalar projectphase3.H1.app[0] "Total received" 0
scalar projectphase3.H1.app[0] "Total deleted" 0
scalar projectphase3.H1.app[0] outOfOrderPk:count 0
attr interpolationmode none
attr source outOfOrderPk
attr title "packets received out of order, count"
scalar projectphase3.H1.app[0] outOfOrderPk:sum(packetBytes) 0
attr interpolationmode none
attr source outOfOrderPk
attr title "packets received out of order, sum(packetBytes)"
scalar projectphase3.H1.app[0] packetReceived:count 0
attr interpolationmode none
attr source packetReceived
attr title "packets received, count"
scalar projectphase3.H1.app[0] packetReceived:sum(packetBytes) 0
attr interpolationmode none
attr source packetReceived
attr title "packets received, sum(packetBytes)"
scalar projectphase3.H1.app[0] packetSent:count 22027
attr interpolationmode none
attr source packetSent
attr title "packets sent, count"
scalar projectphase3.H1.app[0] packetSent:sum(packetBytes) 3788644
attr interpolationmode none
attr source packetSent
attr title "packets sent, sum(packetBytes)"
scalar projectphase3.H1.app[1] "packets sent" 29961
scalar projectphase3.H1.app[1] "packets received" 0
scalar projectphase3.H1.app[1] packetReceived:count 0
attr interpolationmode none
attr source packetReceived
attr title "packets received, count"
scalar projectphase3.H1.app[1] packetReceived:sum(packetBytes) 0
attr interpolationmode none
attr source packetReceived
attr title "packets received, sum(packetBytes)"
statistic projectphase3.H1.app[1] rcvdPkLifetime:stats
field count 0
field mean nan
field stddev nan
field min nan
field max nan
field sum 0
field sqrsum 0
attr interpolationmode none
attr source dataAge(packetReceived)
attr title "received packet lifetime, stats"
attr unit s
scalar projectphase3.H1.app[1] packetSent:count 29961
attr interpolationmode none
attr source packetSent
attr title "packets sent, count"
scalar projectphase3.H1.app[1] packetSent:sum(packetBytes) 14980500
attr interpolationmode none
attr source packetSent
attr title "packets sent, sum(packetBytes)"
scalar projectphase3.H1.app[2] numActiveSessions:max 3
attr interpolationmode sample-hold
attr source sum(connect)
attr title "number of active sessions, max"
scalar projectphase3.H1.app[2] numActiveSessions:timeavg 2.7706363240673
attr interpolationmode sample-hold
attr source sum(connect)
attr title "number of active sessions, timeavg"
scalar projectphase3.H1.app[2] numSessions:last 4
attr source sum(connect+1)/2
attr title "total number of sessions, last"
scalar projectphase3.H1.app[2] packetReceived:count 1
attr interpolationmode none
attr source packetReceived
attr title "packets received, count"
scalar projectphase3.H1.app[2] packetReceived:sum(packetBytes) 100
attr interpolationmode none
attr source packetReceived
attr title "packets received, sum(packetBytes)"
scalar projectphase3.H1.app[2] packetSent:count 2
attr interpolationmode none
attr source packetSent
attr title "packets sent, count"
scalar projectphase3.H1.app[2] packetSent:sum(packetBytes) 100
attr interpolationmode none
attr source packetSent
attr title "packets sent, sum(packetBytes)"
scalar projectphase3.H2.lo[0].lo rcvdPkFromHl:count 0
attr interpolationmode none
attr source packetReceivedFromUpper
attr title "packets received from higher layer, count"
scalar projectphase3.H2.lo[0].lo rcvdPkFromHl:sum(packetBytes) 0
attr interpolationmode none
attr source packetReceivedFromUpper
attr title "packets received from higher layer, sum(packetBytes)"
scalar projectphase3.H2.lo[0].lo passedUpPk:count 0
attr interpolationmode none
attr source packetSentToUpper
attr title "packets passed to higher layer, count"
scalar projectphase3.H2.lo[0].lo passedUpPk:sum(packetBytes) 0
attr interpolationmode none
attr source packetSentToUpper
attr title "packets passed to higher layer, sum(packetBytes)"
scalar projectphase3.H2.eth[0].mac.queue.classifier packetPushed:count 21
attr interpolationmode none
attr title "packets pushed, count"
scalar projectphase3.H2.eth[0].mac.queue.classifier packetPushed:sum(packetBytes) 1438
attr interpolationmode none
attr title "packets pushed, sum(packetBytes)"
scalar projectphase3.H2.eth[0].mac.queue.classifier packetDropped:count 0
attr interpolationmode none
attr title "packets dropped, count"
scalar projectphase3.H2.eth[0].mac.queue.classifier packetDropped:sum(packetBytes) 0
attr interpolationmode none
attr title "packets dropped, sum(packetBytes)"
scalar projectphase3.H2.eth[0].mac.queue.pauseQueue packetPopped:count 0
attr interpolationmode none
attr title "packet popped, count"
scalar projectphase3.H2.eth[0].mac.queue.pauseQueue packetPopped:sum(packetBytes) 0
attr interpolationmode none
attr title "packet popped, sum(packetBytes)"
statistic projectphase3.H2.eth[0].mac.queue.pauseQueue queueingTime:histogram
field count 0
field mean nan
field stddev nan
field min nan
field max nan
field sum 0
field sqrsum 0
attr interpolationmode none
attr source queueingTime(packetPopped)
attr title "queueing times, histogram"
attr unit s
bin	-inf	0
bin	0	0
bin	1	0
scalar projectphase3.H2.eth[0].mac.queue.pauseQueue queueLength:max nan
attr interpolationmode sample-hold
attr source "count(packetPushed) - count(packetPopped) - count(packetRemoved) - count(packetDropped)"
attr title "queue length, max"
scalar projectphase3.H2.eth[0].mac.queue.pauseQueue queueLength:timeavg nan
attr interpolationmode sample-hold
attr source "count(packetPushed) - count(packetPopped) - count(packetRemoved) - count(packetDropped)"
attr title "queue length, timeavg"
scalar projectphase3.H2.eth[0].mac.queue.pauseQueue packetPushed:count 0
attr interpolationmode none
attr title "packet pushed, count"
scalar projectphase3.H2.eth[0].mac.queue.pauseQueue packetPushed:sum(packetBytes) 0
attr interpolationmode none
attr title "packet pushed, sum(packetBytes)"
scalar projectphase3.H2.eth[0].mac.queue.pauseQueue packetDropQueueOverflow:count 0
attr interpolationmode none
attr source packetDropReasonIsQueueOverflow(packetDropped)
attr title "packet drops: queue overflow, count"
scalar projectphase3.H2.eth[0].mac.queue.pauseQueue packetDropQueueOverflow:sum(packetBytes) 0
attr interpolationmode none
attr source packetDropReasonIsQueueOverflow(packetDropped)
attr title "packet drops: queue overflow, sum(packetBytes)"
scalar projectphase3.H2.eth[0].mac.queue.pauseQueue packetRemoved:count 0
attr interpolationmode none
attr title "packets removed, count"
scalar projectphase3.H2.eth[0].mac.queue.pauseQueue packetRemoved:sum(packetBytes) 0
attr interpolationmode none
attr title "packets removed, sum(packetBytes)"
scalar projectphase3.H2.eth[0].mac.queue.dataQueue packetPopped:count 21
attr interpolationmode none
attr title "packet popped, count"
scalar projectphase3.H2.eth[0].mac.queue.dataQueue packetPopped:sum(packetBytes) 1438
attr interpolationmode none
attr title "packet popped, sum(packetBytes)"
statistic projectphase3.H2.eth[0].mac.queue.dataQueue queueingTime:histogram
field count 21
field mean 6.4e-07
field stddev 2.0213262972613e-06
field min 0
field max 6.72e-06
field sum 1.344e-05
field sqrsum 9.03168e-11
attr interpolationmode none
attr source queueingTime(packetPopped)
attr title "queueing times, histogram"
attr unit s
bin	-inf	0
bin	0	19
bin	1e-07	0
bin	2e-07	0
bin	3e-07	0
bin	4e-07	0
bin	5e-07	0
bin	6e-07	0
bin	7e-07	0
bin	8e-07	0
bin	9e-07	0
bin	1e-06	0
bin	1.1e-06	0
bin	1.2e-06	0
bin	1.3e-06	0
bin	1.4e-06	0
bin	1.5e-06	0
bin	1.6e-06	0
bin	1.7e-06	0
bin	1.8e-06	0
bin	1.9e-06	0
bin	2e-06	0
bin	2.1e-06	0
bin	2.2e-06	0
bin	2.3e-06	0
bin	2.4e-06	0
bin	2.5e-06	0
bin	2.6e-06	0
bin	2.7e-06	0
bin	2.8e-06	0
bin	2.9e-06	0
bin	3e-06	0
bin	3.1e-06	0
bin	3.2e-06	0
bin	3.3e-06	0
bin	3.4e-06	0
bin	3.5e-06	0
bin	3.6e-06	0
bin	3.7e-06	0
bin	3.8e-06	0
bin	3.9e-06	0
bin	4e-06	0
bin	4.1e-06	0
bin	4.2e-06	0
bin	4.3e-06	0
bin	4.4e-06	0
bin	4.5e-06	0
bin	4.6e-06	0
bin	4.7e-06	0
bin	4.8e-06	0
bin	4.9e-06	0
bin	5e-06	0
bin	5.1e-06	0
bin	5.2e-06	0
bin	5.3e-06	0
bin	5.4e-06	0
bin	5.5e-06	0
bin	5.6e-06	0
bin	5.7e-06	0
bin	5.8e-06	0
bin	5.9e-06	0
bin	6e-06	0
bin	6.1e-06	0
bin	6.2e-06	0
bin	6.3e-06	0
bin	6.4e-06	0
bin	6.5e-06	0
bin	6.6e-06	0
bin	6.7e-06	2
bin	6.8e-06	0
bin	6.9e-06	0
bin	7e-06	0
bin	7.1e-06	0
bin	7.2e-06	0
bin	7.3e-06	0
bin	7.4e-06	0
bin	7.5e-06	0
bin	7.6e-06	0
bin	7.7e-06	0
bin	7.8e-06	0
bin	7.9e-06	0
bin	8e-06	0
bin	8.1e-06	0
bin	8.2e-06	0
bin	8.3e-06	0
bin	8.4e-06	0
scalar projectphase3.H2.eth[0].mac.queue.dataQueue queueLength:max 1
attr interpolationmode sample-hold
attr source "count(packetPushed) - count(packetPopped) - count(packetRemoved) - count(packetDropped)"
attr title "queue length, max"
scalar projectphase3.H2.eth[0].mac.queue.dataQueue queueLength:timeavg 1.0761244108762e-08
attr interpolationmode sample-hold
attr source "count(packetPushed) - count(packetPopped) - count(packetRemoved) - count(packetDropped)"
attr title "queue length, timeavg"
scalar projectphase3.H2.eth[0].mac.queue.dataQueue packetPushed:count 21
attr interpolationmode none
attr title "packet pushed, count"
scalar projectphase3.H2.eth[0].mac.queue.dataQueue packetPushed:sum(packetBytes) 1438
attr interpolationmode none
attr title "packet pushed, sum(packetBytes)"
scalar projectphase3.H2.eth[0].mac.queue.dataQueue packetDropQueueOverflow:count 0
attr interpolationmode none
attr source packetDropReasonIsQueueOverflow(packetDropped)
attr title "packet drops: queue overflow, count"
scalar projectphase3.H2.eth[0].mac.queue.dataQueue packetDropQueueOverflow:sum(packetBytes) 0
attr interpolationmode none
attr source packetDropReasonIsQueueOverflow(packetDropped)
attr title "packet drops: queue overflow, sum(packetBytes)"
scalar projectphase3.H2.eth[0].mac.queue.dataQueue packetRemoved:count 0
attr interpolationmode none
attr title "packets removed, count"
scalar projectphase3.H2.eth[0].mac.queue.dataQueue packetRemoved:sum(packetBytes) 0
attr interpolationmode none
attr title "packets removed, sum(packetBytes)"
scalar projectphase3.H2.eth[0].mac.queue.scheduler packetPopped:count 21
attr interpolationmode none
attr title "packets popped, count"
scalar projectphase3.H2.eth[0].mac.queue.scheduler packetPopped:sum(packetBytes) 1438
attr interpolationmode none
attr title "packets popped, sum(packetBytes)"
scalar projectphase3.H2.eth[0].mac.queue packetPopped:count 21
attr interpolationmode none
attr source localSignal(packetPopped)
attr title "packets popped, count"
scalar projectphase3.H2.eth[0].mac.queue packetPopped:sum(packetBytes) 1438
attr interpolationmode none
attr source localSignal(packetPopped)
attr title "packets popped, sum(packetBytes)"
statistic projectphase3.H2.eth[0].mac.queue queueingTime:histogram
field count 63
field mean 6.4e-07
field stddev 1.9884570124402e-06
field min 0
field max 6.72e-06
field sum 4.032e-05
field sqrsum 2.709504e-10
attr interpolationmode none
attr source queueingTime(packetPopped)
attr title "queueing times, histogram"
attr unit s
bin	-inf	0
bin	0	57
bin	1e-07	0
bin	2e-07	0
bin	3e-07	0
bin	4e-07	0
bin	5e-07	0
bin	6e-07	0
bin	7e-07	0
bin	8e-07	0
bin	9e-07	0
bin	1e-06	0
bin	1.1e-06	0
bin	1.2e-06	0
bin	1.3e-06	0
bin	1.4e-06	0
bin	1.5e-06	0
bin	1.6e-06	0
bin	1.7e-06	0
bin	1.8e-06	0
bin	1.9e-06	0
bin	2e-06	0
bin	2.1e-06	0
bin	2.2e-06	0
bin	2.3e-06	0
bin	2.4e-06	0
bin	2.5e-06	0
bin	2.6e-06	0
bin	2.7e-06	0
bin	2.8e-06	0
bin	2.9e-06	0
bin	3e-06	0
bin	3.1e-06	0
bin	3.2e-06	0
bin	3.3e-06	0
bin	3.4e-06	0
bin	3.5e-06	0
bin	3.6e-06	0
bin	3.7e-06	0
bin	3.8e-06	0
bin	3.9e-06	0
bin	4e-06	0
bin	4.1e-06	0
bin	4.2e-06	0
bin	4.3e-06	0
bin	4.4e-06	0
bin	4.5e-06	0
bin	4.6e-06	0
bin	4.7e-06	0
bin	4.8e-06	0
bin	4.9e-06	0
bin	5e-06	0
bin	5.1e-06	0
bin	5.2e-06	0
bin	5.3e-06	0
bin	5.4e-06	0
bin	5.5e-06	0
bin	5.6e-06	0
bin	5.7e-06	0
bin	5.8e-06	0
bin	5.9e-06	0
bin	6e-06	0
bin	6.1e-06	0
bin	6.2e-06	0
bin	6.3e-06	0
bin	6.4e-06	0
bin	6.5e-06	0
bin	6.6e-06	0
bin	6.7e-06	6
bin	6.8e-06	0
bin	6.9e-06	0
bin	7e-06	0
bin	7.1e-06	0
bin	7.2e-06	0
bin	7.3e-06	0
bin	7.4e-06	0
bin	7.5e-06	0
bin	7.6e-06	0
bin	7.7e-06	0
bin	7.8e-06	0
bin	7.9e-06	0
bin	8e-06	0
bin	8.1e-06	0
bin	8.2e-06	0
bin	8.3e-06	0
bin	8.4e-06	0
scalar projectphase3.H2.eth[0].mac.queue queueLength:max 1
attr interpolationmode sample-hold
attr source "count(localSignal(packetPushed)) - count(localSignal(packetPopped)) - count(localSignal(packetRemoved)) - count(packetDropped)"
attr title "queue length, max"
scalar projectphase3.H2.eth[0].mac.queue queueLength:timeavg 1.0761244108762e-08
attr interpolationmode sample-hold
attr source "count(localSignal(packetPushed)) - count(localSignal(packetPopped)) - count(localSignal(packetRemoved)) - count(packetDropped)"
attr title "queue length, timeavg"
scalar projectphase3.H2.eth[0].mac.queue packetPushed:count 21
attr interpolationmode none
attr source localSignal(packetPushed)
attr title "packets pushed, count"
scalar projectphase3.H2.eth[0].mac.queue packetPushed:sum(packetBytes) 1438
attr interpolationmode none
attr source localSignal(packetPushed)
attr title "packets pushed, sum(packetBytes)"
scalar projectphase3.H2.eth[0].mac.queue packetDropQueueOverflow:count 0
attr interpolationmode none
attr source packetDropReasonIsQueueOverflow(packetDropped)
attr title "packets dropped: queue overflow, count"
scalar projectphase3.H2.eth[0].mac.queue packetDropQueueOverflow:sum(packetBytes) 0
attr interpolationmode none
attr source packetDropReasonIsQueueOverflow(packetDropped)
attr title "packets dropped: queue overflow, sum(packetBytes)"
scalar projectphase3.H2.eth[0].mac.queue packetRemoved:count 0
attr interpolationmode none
attr source localSignal(packetRemoved)
attr title "packets removed, count"
scalar projectphase3.H2.eth[0].mac.queue packetRemoved:sum(packetBytes) 0
attr interpolationmode none
attr source localSignal(packetRemoved)
attr title "packets removed, sum(packetBytes)"
scalar projectphase3.H2.eth[0].mac "simulated time" 1250
scalar projectphase3.H2.eth[0].mac full-duplex 1
scalar projectphase3.H2.eth[0].mac "frames/sec sent" 0.0168
scalar projectphase3.H2.eth[0].mac "frames/sec rcvd" 8.8744
scalar projectphase3.H2.eth[0].mac "bits/sec sent" 9.2032
scalar projectphase3.H2.eth[0].mac "bits/sec rcvd" 31961.664
scalar projectphase3.H2.eth[0].mac "rx channel idle (%)" 100
scalar projectphase3.H2.eth[0].mac "rx channel utilization (%)" 0
scalar projectphase3.H2.eth[0].mac txPk:count 21
attr interpolationmode none
attr source packetSentToLower
attr title "packets transmitted, count"
scalar projectphase3.H2.eth[0].mac txPk:sum(packetBytes) 1438
attr interpolationmode none
attr source packetSentToLower
attr title "packets transmitted, sum(packetBytes)"
scalar projectphase3.H2.eth[0].mac packetReceivedFromUpper:count 21
attr interpolationmode none
attr source packetReceivedFromUpper
attr title "packet bytes from higher layer, count"
scalar projectphase3.H2.eth[0].mac packetReceivedFromUpper:sum(packetBytes) 1210
attr interpolationmode none
attr source packetReceivedFromUpper
attr title "packet bytes from higher layer, sum(packetBytes)"
scalar projectphase3.H2.eth[0].mac passedUpPk:count 11093
attr interpolationmode none
attr source packetSentToUpper
attr title "packets passed to higher layer, count"
scalar projectphase3.H2.eth[0].mac passedUpPk:sum(packetBytes) 4994010
attr interpolationmode none
attr source packetSentToUpper
attr title "packets passed to higher layer, sum(packetBytes)"
scalar projectphase3.H2.eth[0].mac packetDropIncorrectlyReceived:count 0
attr interpolationmode none
attr source packetDropReasonIsIncorrectlyReceived(packetDropped)
attr title "packet drop: incorrectly received, count"
scalar projectphase3.H2.eth[0].mac packetDropIncorrectlyReceived:sum(packetBytes) 0
attr interpolationmode none
attr source packetDropReasonIsIncorrectlyReceived(packetDropped)
attr title "packet drop: incorrectly received, sum(packetBytes)"
scalar projectphase3.H2.eth[0].mac packetDropInterfaceDown:count 0
attr interpolationmode none
attr source packetDropReasonIsInterfaceDown(packetDropped)
attr title "packet drop: interface down, count"
scalar projectphase3.H2.eth[0].mac packetDropInterfaceDown:sum(packetBytes) 0
attr interpolationmode none
attr source packetDropReasonIsInterfaceDown(packetDropped)
attr title "packet drop: interface down, sum(packetBytes)"
scalar projectphase3.H2.eth[0].mac packetDropNotAddressedToUs:count 0
attr interpolationmode none
attr source packetDropReasonIsNotAddressedToUs(packetDropped)
attr title "packet drop: not addressed to us, count"
scalar projectphase3.H2.eth[0].mac packetDropNotAddressedToUs:sum(packetBytes) 0
attr interpolationmode none
attr source packetDropReasonIsNotAddressedToUs(packetDropped)
attr title "packet drop: not addressed to us, sum(packetBytes)"
scalar projectphase3.H2.eth[0].mac rxPausePkUnits:count 0
attr interpolationmode none
attr title "pause units received, count"
scalar projectphase3.H2.eth[0].mac rxPausePkUnits:sum 0
attr interpolationmode none
attr title "pause units received, sum"
scalar projectphase3.H2.eth[0].mac txPausePkUnits:count 0
attr interpolationmode none
attr title "pause units sent, count"
scalar projectphase3.H2.eth[0].mac txPausePkUnits:sum 0
attr interpolationmode none
attr title "pause units sent, sum"
scalar projectphase3.H2.eth[0].mac rxPkOk:count 11093
attr interpolationmode none
attr source rxPkOk
attr title "packets received OK, count"
scalar projectphase3.H2.eth[0].mac rxPkOk:sum(packetBytes) 4994010
attr interpolationmode none
attr source rxPkOk
attr title "packets received OK, sum(packetBytes)"
scalar projectphase3.H2.eth[0].encap pauseSent:count 0
attr title "pause sent, count"
scalar projectphase3.H2.eth[0].encap pauseSent:sum 0
attr title "pause sent, sum"
scalar projectphase3.H2.eth[0].encap decapPk:count 11093
attr interpolationmode none
attr source decapPk
attr title "packets decapsulated, count"
scalar projectphase3.H2.eth[0].encap decapPk:sum(packetBytes) 4794336
attr interpolationmode none
attr source decapPk
attr title "packets decapsulated, sum(packetBytes)"
scalar projectphase3.H2.eth[0].encap encapPk:count 21
attr interpolationmode none
attr source encapPk
attr title "packets encapsulated, count"
scalar projectphase3.H2.eth[0].encap encapPk:sum(packetBytes) 832
attr interpolationmode none
attr source encapPk
attr title "packets encapsulated, sum(packetBytes)"
scalar projectphase3.H2.ipv4.ip packetDropAddressResolutionFailed:count 0
attr interpolationmode none
attr source packetDropReasonIsAddressResolutionFailed(packetDropped)
attr title "packet drop: address resolution failed, count"
scalar projectphase3.H2.ipv4.ip packetDropAddressResolutionFailed:sum(packetBytes) 0
attr interpolationmode none
attr source packetDropReasonIsAddressResolutionFailed(packetDropped)
attr title "packet drop: address resolution failed, sum(packetBytes)"
scalar projectphase3.H2.ipv4.ip packetDropHopLimitReached:count 0
attr interpolationmode none
attr source packetDropReasonIsHopLimitReached(packetDropped)
attr title "packet drop: hop limit reached, count"
scalar projectphase3.H2.ipv4.ip packetDropHopLimitReached:sum(packetBytes) 0
attr interpolationmode none
attr source packetDropReasonIsHopLimitReached(packetDropped)
attr title "packet drop: hop limit reached, sum(packetBytes)"
scalar projectphase3.H2.ipv4.ip packetDropForwardingDisabled:count 0
attr interpolationmode none
attr source packetDropReasonIsForwardingDisabled(packetDropped)
attr title "packet drop: forwarding disabled, count"
scalar projectphase3.H2.ipv4.ip packetDropForwardingDisabled:sum(packetBytes) 0
attr interpolationmode none
attr source packetDropReasonIsForwardingDisabled(packetDropped)
attr title "packet drop: forwarding disabled, sum(packetBytes)"
scalar projectphase3.H2.ipv4.ip packetDropNoInterfaceFound:count 0
attr interpolationmode none
attr source packetDropReasonIsNoInterfaceFound(packetDropped)
attr title "packet drop: no interface found, count"
scalar projectphase3.H2.ipv4.ip packetDropNoInterfaceFound:sum(packetBytes) 0
attr interpolationmode none
attr source packetDropReasonIsNoInterfaceFound(packetDropped)
attr title "packet drop: no interface found, sum(packetBytes)"
scalar projectphase3.H2.ipv4.ip packetDropNoRouteFound:count 0
attr interpolationmode none
attr source packetDropReasonIsNoRouteFound(packetDropped)
attr title "packet drop: no route found, count"
scalar projectphase3.H2.ipv4.ip packetDropNoRouteFound:sum(packetBytes) 0
attr interpolationmode none
attr source packetDropReasonIsNoRouteFound(packetDropped)
attr title "packet drop: no route found, sum(packetBytes)"
scalar projectphase3.H2.ipv4.ip packetDropUndefined:count 0
attr interpolationmode none
attr source packetDropReasonIsUndefined(packetDropped)
attr title "packet drop: undefined, count"
scalar projectphase3.H2.ipv4.ip packetDropUndefined:sum(packetBytes) 0
attr interpolationmode none
attr source packetDropReasonIsUndefined(packetDropped)
attr title "packet drop: undefined, sum(packetBytes)"
scalar projectphase3.H2.ipv4.arp arpReplySent:count 11
attr source arpReplySent
attr title "ARP replies sent, count"
scalar projectphase3.H2.ipv4.arp arpReplySent:sum(packetBytes) 308
attr source arpReplySent
attr title "ARP replies sent, sum(packetBytes)"
scalar projectphase3.H2.ipv4.arp arpRequestSent:count 0
attr source arpRequestSent
attr title "ARP request sent, count"
scalar projectphase3.H2.ipv4.arp arpRequestSent:sum(packetBytes) 0
attr source arpRequestSent
attr title "ARP request sent, sum(packetBytes)"
scalar projectphase3.H2.ipv4.arp arpResolutionFailed:count 0
attr title "ARP failed resolutions, count"
scalar projectphase3.H2.ipv4.arp arpResolutionCompleted:count 11
attr title "ARP completed resolutions, count"
scalar projectphase3.H2.ipv4.arp arpResolutionInitiated:count 0
attr title "ARP initiated resolutions, count"
scalar projectphase3.H2.udp packetReceived:count 10950
attr interpolationmode none
attr source packetReceived
attr title "packets received, count"
scalar projectphase3.H2.udp packetReceived:sum(packetBytes) 4566464
attr interpolationmode none
attr source packetReceived
attr title "packets received, sum(packetBytes)"
scalar projectphase3.H2.udp packetSent:count 0
attr interpolationmode none
attr source packetSent
attr title "packets sent, count"
scalar projectphase3.H2.udp packetSent:sum(packetBytes) 0
attr interpolationmode none
attr source packetSent
attr title "packets sent, sum(packetBytes)"
scalar projectphase3.H2.udp passedUpPk:count 10950
attr interpolationmode none
attr source packetSentToUpper
attr title "packets passed up, count"
scalar projectphase3.H2.udp droppedPkWrongPort:count 0
attr interpolationmode none
attr source packetDropReasonIsNoPortFound(packetDropped)
attr title "packets dropped (wrong port), count"
scalar projectphase3.H2.udp droppedPkBadChecksum:count 0
attr interpolationmode none
attr source packetDropReasonIsIncorrectlyReceived(packetDropped)
attr title "packets dropped (checksum error), count"
scalar projectphase3.H2.app[0] "Total sent" 0
scalar projectphase3.H2.app[0] "Total received" 2506
scalar projectphase3.H2.app[0] "Total deleted" 0
scalar projectphase3.H2.app[0] outOfOrderPk:count 531
attr interpolationmode none
attr source outOfOrderPk
attr title "packets received out of order, count"
scalar projectphase3.H2.app[0] outOfOrderPk:sum(packetBytes) 91332
attr interpolationmode none
attr source outOfOrderPk
attr title "packets received out of order, sum(packetBytes)"
scalar projectphase3.H2.app[0] packetReceived:count 2506
attr interpolationmode none
attr source packetReceived
attr title "packets received, count"
scalar projectphase3.H2.app[0] packetReceived:sum(packetBytes) 431032
attr interpolationmode none
attr source packetReceived
attr title "packets received, sum(packetBytes)"
scalar projectphase3.H2.app[0] packetSent:count 0
attr interpolationmode none
attr source packetSent
attr title "packets sent, count"
scalar projectphase3.H2.app[0] packetSent:sum(packetBytes) 0
attr interpolationmode none
attr source packetSent
attr title "packets sent, sum(packetBytes)"
scalar projectphase3.H2.app[1] packetReceived:count 7913
attr interpolationmode none
attr source packetReceived
attr title "packets received, count"
scalar projectphase3.H2.app[1] packetReceived:sum(packetBytes) 3956500
attr interpolationmode none
attr source packetReceived
attr title "packets received, sum(packetBytes)"
scalar projectphase3.H2.app[2] packetReceived:count 1
attr interpolationmode none
attr source packetReceived
attr title "packets received, count"
scalar projectphase3.H2.app[2] packetReceived:sum(packetBytes) 50
attr interpolationmode none
attr source packetReceived
attr title "packets received, sum(packetBytes)"
scalar projectphase3.H2.app[2] packetSent:count 1
attr interpolationmode none
attr source packetSent
attr title "packets sent, count"
scalar projectphase3.H2.app[2] packetSent:sum(packetBytes) 100
attr interpolationmode none
attr source packetSent
attr title "packets sent, sum(packetBytes)"
scalar projectphase3.R1.lo[0].lo rcvdPkFromHl:count 0
attr interpolationmode none
attr source packetReceivedFromUpper
attr title "packets received from higher layer, count"
scalar projectphase3.R1.lo[0].lo rcvdPkFromHl:sum(packetBytes) 0
attr interpolationmode none
attr source packetReceivedFromUpper
attr title "packets received from higher layer, sum(packetBytes)"
scalar projectphase3.R1.lo[0].lo passedUpPk:count 0
attr interpolationmode none
attr source packetSentToUpper
attr title "packets passed to higher layer, count"
scalar projectphase3.R1.lo[0].lo passedUpPk:sum(packetBytes) 0
attr interpolationmode none
attr source packetSentToUpper
attr title "packets passed to higher layer, sum(packetBytes)"
scalar projectphase3.R1.ppp[0].ppp.queue packetPopped:count 2184
attr interpolationmode none
attr title "packet popped, count"
scalar projectphase3.R1.ppp[0].ppp.queue packetPopped:sum(packetBytes) 845544
attr interpolationmode none
attr title "packet popped, sum(packetBytes)"
statistic projectphase3.R1.ppp[0].ppp.queue queueingTime:histogram
field count 2184
field mean 0.047070913735992
field stddev 0.042904250737674
field min 0
field max 0.185578482524
field sum 102.80287559941
field sqrsum 8.857436527713
attr interpolationmode none
attr source queueingTime(packetPopped)
attr title "queueing times, histogram"
attr unit s
bin	-inf	0
bin	0	534
bin	0.004	3
bin	0.008	22
bin	0.012	153
bin	0.016	28
bin	0.02	36
bin	0.024	12
bin	0.028	21
bin	0.032	368
bin	0.036	17
bin	0.04	68
bin	0.044	63
bin	0.048	55
bin	0.052	60
bin	0.056	14
bin	0.06	13
bin	0.064	91
bin	0.068	13
bin	0.072	1
bin	0.076	3
bin	0.08	214
bin	0.084	1
bin	0.088	1
bin	0.092	49
bin	0.096	34
bin	0.1	3
bin	0.104	19
bin	0.108	14
bin	0.112	104
bin	0.116	45
bin	0.12	3
bin	0.124	16
bin	0.128	16
bin	0.132	9
bin	0.136	24
bin	0.14	3
bin	0.144	5
bin	0.148	26
bin	0.152	2
bin	0.156	6
bin	0.16	12
bin	0.164	0
bin	0.168	0
bin	0.172	0
bin	0.176	0
bin	0.18	1
bin	0.184	2
bin	0.188	0
scalar projectphase3.R1.ppp[0].ppp.queue queueLength:max 4
attr interpolationmode sample-hold
attr source "count(packetPushed) - count(packetPopped) - count(packetRemoved) - count(packetDropped)"
attr title "queue length, max"
scalar projectphase3.R1.ppp[0].ppp.queue queueLength:timeavg 0.082249462618485
attr interpolationmode sample-hold
attr source "count(packetPushed) - count(packetPopped) - count(packetRemoved) - count(packetDropped)"
attr title "queue length, timeavg"
scalar projectphase3.R1.ppp[0].ppp.queue packetPushed:count 2184
attr interpolationmode none
attr title "packet pushed, count"
scalar projectphase3.R1.ppp[0].ppp.queue packetPushed:sum(packetBytes) 845544
attr interpolationmode none
attr title "packet pushed, sum(packetBytes)"
scalar projectphase3.R1.ppp[0].ppp.queue packetDropQueueOverflow:count 0
attr interpolationmode none
attr source packetDropReasonIsQueueOverflow(packetDropped)
attr title "packet drops: queue overflow, count"
scalar projectphase3.R1.ppp[0].ppp.queue packetDropQueueOverflow:sum(packetBytes) 0
attr interpolationmode none
attr source packetDropReasonIsQueueOverflow(packetDropped)
attr title "packet drops: queue overflow, sum(packetBytes)"
scalar projectphase3.R1.ppp[0].ppp.queue packetRemoved:count 0
attr interpolationmode none
attr title "packets removed, count"
scalar projectphase3.R1.ppp[0].ppp.queue packetRemoved:sum(packetBytes) 0
attr interpolationmode none
attr title "packets removed, sum(packetBytes)"
scalar projectphase3.R1.ppp[0].ppp txPk:count 2184
attr interpolationmode none
attr source packetSentToLower
attr title "packets transmitted, count"
scalar projectphase3.R1.ppp[0].ppp txPk:sum(packetBytes) 860832
attr interpolationmode none
attr source packetSentToLower
attr title "packets transmitted, sum(packetBytes)"
scalar projectphase3.R1.ppp[0].ppp rcvdPkFromHl:count 2184
attr interpolationmode none
attr source packetReceivedFromUpper
attr title "packets received from higher layer, count"
scalar projectphase3.R1.ppp[0].ppp rcvdPkFromHl:sum(packetBytes) 845544
attr interpolationmode none
attr source packetReceivedFromUpper
attr title "packets received from higher layer, sum(packetBytes)"
scalar projectphase3.R1.ppp[0].ppp passedUpPk:count 4658
attr interpolationmode none
attr source packetSentToUpper
attr title "packets passed to higher layer, count"
scalar projectphase3.R1.ppp[0].ppp passedUpPk:sum(packetBytes) 1789270
attr interpolationmode none
attr source packetSentToUpper
attr title "packets passed to higher layer, sum(packetBytes)"
scalar projectphase3.R1.ppp[0].ppp packetDropIncorrectlyReceived:count 0
attr interpolationmode none
attr source packetDropReasonIsIncorrectlyReceived(packetDropped)
attr title "packet drop: incorrectly received, count"
scalar projectphase3.R1.ppp[0].ppp packetDropIncorrectlyReceived:sum(packetBytes) 0
attr interpolationmode none
attr source packetDropReasonIsIncorrectlyReceived(packetDropped)
attr title "packet drop: incorrectly received, sum(packetBytes)"
scalar projectphase3.R1.ppp[0].ppp packetDropInterfaceDown:count 0
attr interpolationmode none
attr source packetDropReasonIsInterfaceDown(packetDropped)
attr title "packet drop: interface down, count"
scalar projectphase3.R1.ppp[0].ppp packetDropInterfaceDown:sum(packetBytes) 0
attr interpolationmode none
attr source packetDropReasonIsInterfaceDown(packetDropped)
attr title "packet drop: interface down, sum(packetBytes)"
scalar projectphase3.R1.ppp[0].ppp rxPkOk:count 4658
attr interpolationmode none
attr source rxPkOk
attr title "packets received OK, count"
scalar projectphase3.R1.ppp[0].ppp rxPkOk:sum(packetBytes) 1821876
attr interpolationmode none
attr source rxPkOk
attr title "packets received OK, sum(packetBytes)"
scalar projectphase3.R1.ppp[0].ppp transmissionState:timeavg 0.1721664
attr interpolationmode sample-hold
attr source transmissionStateChanged
attr title "tx state, timeavg"
scalar projectphase3.R1.ppp[1].ppp.queue packetPopped:count 2698
attr interpolationmode none
attr title "packet popped, count"
scalar projectphase3.R1.ppp[1].ppp.queue packetPopped:sum(packetBytes) 963006
attr interpolationmode none
attr title "packet popped, sum(packetBytes)"
statistic projectphase3.R1.ppp[1].ppp.queue queueingTime:histogram
field count 2698
field mean 5.9058773211126
field stddev 4.0234016199242
field min 0
field max 20.20375
field sum 15934.057012362
field sqrsum 137762.9762679
attr interpolationmode none
attr source queueingTime(packetPopped)
attr title "queueing times, histogram"
attr unit s
bin	-inf	0
bin	0	228
bin	0.4	86
bin	0.8	78
bin	1.2	86
bin	1.6	87
bin	2	85
bin	2.4	81
bin	2.8	87
bin	3.2	84
bin	3.6	84
bin	4	80
bin	4.4	87
bin	4.8	88
bin	5.2	75
bin	5.6	82
bin	6	94
bin	6.4	83
bin	6.8	83
bin	7.2	83
bin	7.6	81
bin	8	78
bin	8.4	90
bin	8.8	88
bin	9.2	84
bin	9.6	88
bin	10	78
bin	10.4	78
bin	10.8	88
bin	11.2	49
bin	11.6	37
bin	12	29
bin	12.4	7
bin	12.8	5
bin	13.2	5
bin	13.6	4
bin	14	7
bin	14.4	3
bin	14.8	3
bin	15.2	4
bin	15.6	5
bin	16	6
bin	16.4	3
bin	16.8	3
bin	17.2	4
bin	17.6	3
bin	18	6
bin	18.4	5
bin	18.8	3
bin	19.2	2
bin	19.6	7
bin	20	4
bin	20.4	0
scalar projectphase3.R1.ppp[1].ppp.queue queueLength:max 101
attr interpolationmode sample-hold
attr source "count(packetPushed) - count(packetPopped) - count(packetRemoved) - count(packetDropped)"
attr title "queue length, max"
scalar projectphase3.R1.ppp[1].ppp.queue queueLength:timeavg 12.748352429055
attr interpolationmode sample-hold
attr source "count(packetPushed) - count(packetPopped) - count(packetRemoved) - count(packetDropped)"
attr title "queue length, timeavg"
scalar projectphase3.R1.ppp[1].ppp.queue packetPushed:count 2702
attr interpolationmode none
attr title "packet pushed, count"
scalar projectphase3.R1.ppp[1].ppp.queue packetPushed:sum(packetBytes) 965118
attr interpolationmode none
attr title "packet pushed, sum(packetBytes)"
scalar projectphase3.R1.ppp[1].ppp.queue packetDropQueueOverflow:count 4
attr interpolationmode none
attr source packetDropReasonIsQueueOverflow(packetDropped)
attr title "packet drops: queue overflow, count"
scalar projectphase3.R1.ppp[1].ppp.queue packetDropQueueOverflow:sum(packetBytes) 2112
attr interpolationmode none
attr source packetDropReasonIsQueueOverflow(packetDropped)
attr title "packet drops: queue overflow, sum(packetBytes)"
scalar projectphase3.R1.ppp[1].ppp.queue packetRemoved:count 0
attr interpolationmode none
attr title "packets removed, count"
scalar projectphase3.R1.ppp[1].ppp.queue packetRemoved:sum(packetBytes) 0
attr interpolationmode none
attr title "packets removed, sum(packetBytes)"
scalar projectphase3.R1.ppp[1].ppp txPk:count 2698
attr interpolationmode none
attr source packetSentToLower
attr title "packets transmitted, count"
scalar projectphase3.R1.ppp[1].ppp txPk:sum(packetBytes) 981892
attr interpolationmode none
attr source packetSentToLower
attr title "packets transmitted, sum(packetBytes)"
scalar projectphase3.R1.ppp[1].ppp rcvdPkFromHl:count 2702
attr interpolationmode none
attr source packetReceivedFromUpper
attr title "packets received from higher layer, count"
scalar projectphase3.R1.ppp[1].ppp rcvdPkFromHl:sum(packetBytes) 965118
attr interpolationmode none
attr source packetReceivedFromUpper
attr title "packets received from higher layer, sum(packetBytes)"
scalar projectphase3.R1.ppp[1].ppp passedUpPk:count 263
attr interpolationmode none
attr source packetSentToUpper
attr title "packets passed to higher layer, count"
scalar projectphase3.R1.ppp[1].ppp passedUpPk:sum(packetBytes) 22668
attr interpolationmode none
attr source packetSentToUpper
[...]
scalar projectphase3.R10.ppp[1].ppp packetDropIncorrectlyReceived:sum(packetBytes) 0
attr interpolationmode none
attr source packetDropReasonIsIncorrectlyReceived(packetDropped)
attr title "packet drop: incorrectly received, sum(packetBytes)"
scalar projectphase3.R10.ppp[1].ppp packetDropInterfaceDown:count 0
attr interpolationmode none
attr source packetDropReasonIsInterfaceDown(packetDropped)
attr title "packet drop: interface down, count"
scalar projectphase3.R10.ppp[1].ppp packetDropInterfaceDown:sum(packetBytes) 0
attr interpolationmode none
attr source packetDropReasonIsInterfaceDown(packetDropped)
attr title "packet drop: interface down, sum(packetBytes)"
scalar projectphase3.R10.ppp[1].ppp rxPkOk:count 197
attr interpolationmode none
attr source rxPkOk
attr title "packets received OK, count"
scalar projectphase3.R10.ppp[1].ppp rxPkOk:sum(packetBytes) 15363
attr interpolationmode none
attr source rxPkOk
attr title "packets received OK, sum(packetBytes)"
scalar projectphase3.R10.ppp[1].ppp transmissionState:timeavg 0.008464
attr interpolationmode sample-hold
attr source transmissionStateChanged
attr title "tx state, timeavg"
scalar projectphase3.R10.ipv4.ip packetDropAddressResolutionFailed:count 0
attr interpolationmode none
attr source packetDropReasonIsAddressResolutionFailed(packetDropped)
attr title "packet drop: address resolution failed, count"
scalar projectphase3.R10.ipv4.ip packetDropAddressResolutionFailed:sum(packetBytes) 0
attr interpolationmode none
attr source packetDropReasonIsAddressResolutionFailed(packetDropped)
attr title "packet drop: address resolution failed, sum(packetBytes)"
scalar projectphase3.R10.ipv4.ip packetDropHopLimitReached:count 0
attr interpolationmode none
attr source packetDropReasonIsHopLimitReached(packetDropped)
attr title "packet drop: hop limit reached, count"
scalar projectphase3.R10.ipv4.ip packetDropHopLimitReached:sum(packetBytes) 0
attr interpolationmode none
attr source packetDropReasonIsHopLimitReached(packetDropped)
attr title "packet drop: hop limit reached, sum(packetBytes)"
scalar projectphase3.R10.ipv4.ip packetDropForwardingDisabled:count 0
attr interpolationmode none
attr source packetDropReasonIsForwardingDisabled(packetDropped)
attr title "packet drop: forwarding disabled, count"
scalar projectphase3.R10.ipv4.ip packetDropForwardingDisabled:sum(packetBytes) 0
attr interpolationmode none
attr source packetDropReasonIsForwardingDisabled(packetDropped)
attr title "packet drop: forwarding disabled, sum(packetBytes)"
scalar projectphase3.R10.ipv4.ip packetDropNoInterfaceFound:count 0
attr interpolationmode none
attr source packetDropReasonIsNoInterfaceFound(packetDropped)
attr title "packet drop: no interface found, count"
scalar projectphase3.R10.ipv4.ip packetDropNoInterfaceFound:sum(packetBytes) 0
attr interpolationmode none
attr source packetDropReasonIsNoInterfaceFound(packetDropped)
attr title "packet drop: no interface found, sum(packetBytes)"
scalar projectphase3.R10.ipv4.ip packetDropNoRouteFound:count 0
attr interpolationmode none
attr source packetDropReasonIsNoRouteFound(packetDropped)
attr title "packet drop: no route found, count"
scalar projectphase3.R10.ipv4.ip packetDropNoRouteFound:sum(packetBytes) 0
attr interpolationmode none
attr source packetDropReasonIsNoRouteFound(packetDropped)
attr title "packet drop: no route found, sum(packetBytes)"
scalar projectphase3.R10.ipv4.ip packetDropUndefined:count 0
attr interpolationmode none
attr source packetDropReasonIsUndefined(packetDropped)
attr title "packet drop: undefined, count"
scalar projectphase3.R10.ipv4.ip packetDropUndefined:sum(packetBytes) 0
attr interpolationmode none
attr source packetDropReasonIsUndefined(packetDropped)
attr title "packet drop: undefined, sum(packetBytes)"
scalar projectphase3.R10.ipv4.arp arpReplySent:count 0
attr source arpReplySent
attr title "ARP replies sent, count"
scalar projectphase3.R10.ipv4.arp arpReplySent:sum(packetBytes) 0
attr source arpReplySent
attr title "ARP replies sent, sum(packetBytes)"
scalar projectphase3.R10.ipv4.arp arpRequestSent:count 0
attr source arpRequestSent
attr title "ARP request sent, count"
scalar projectphase3.R10.ipv4.arp arpRequestSent:sum(packetBytes) 0
attr source arpRequestSent
attr title "ARP request sent, sum(packetBytes)"
scalar projectphase3.R10.ipv4.arp arpResolutionFailed:count 0
attr title "ARP failed resolutions, count"
scalar projectphase3.R10.ipv4.arp arpResolutionCompleted:count 0
attr title "ARP completed resolutions, count"
scalar projectphase3.R10.ipv4.arp arpResolutionInitiated:count 0
attr title "ARP initiated resolutions, count"
scalar projectphase3.R11.lo[0].lo rcvdPkFromHl:count 0
attr interpolationmode none
attr source packetReceivedFromUpper
attr title "packets received from higher layer, count"
scalar projectphase3.R11.lo[0].lo rcvdPkFromHl:sum(packetBytes) 0
attr interpolationmode none
attr source packetReceivedFromUpper
attr title "packets received from higher layer, sum(packetBytes)"
scalar projectphase3.R11.lo[0].lo passedUpPk:count 0
attr interpolationmode none
attr source packetSentToUpper
attr title "packets passed to higher layer, count"
scalar projectphase3.R11.lo[0].lo passedUpPk:sum(packetBytes) 0
attr interpolationmode none
attr source packetSentToUpper
attr title "packets passed to higher layer, sum(packetBytes)"
scalar projectphase3.R11.ppp[0].ppp.queue packetPopped:count 197
attr interpolationmode none
attr title "packet popped, count"
scalar projectphase3.R11.ppp[0].ppp.queue packetPopped:sum(packetBytes) 13984
attr interpolationmode none
attr title "packet popped, sum(packetBytes)"
statistic projectphase3.R11.ppp[0].ppp.queue queueingTime:histogram
field count 197
field mean 0.011088639385462
field stddev 0.045514483619164
field min 0
field max 0.284
field sum 2.184461958936
field sqrsum 0.43025008186125
attr interpolationmode none
attr source queueingTime(packetPopped)
attr title "queueing times, histogram"
attr unit s
bin	-inf	0
bin	0	179
bin	0.005	1
bin	0.01	0
bin	0.015	1
bin	0.02	0
bin	0.025	0
bin	0.03	0
bin	0.035	2
bin	0.04	1
bin	0.045	2
bin	0.05	0
bin	0.055	1
bin	0.06	0
bin	0.065	0
bin	0.07	1
bin	0.075	0
bin	0.08	0
bin	0.085	0
bin	0.09	0
bin	0.095	0
bin	0.1	1
bin	0.105	1
bin	0.11	0
bin	0.115	0
bin	0.12	0
bin	0.125	0
bin	0.13	0
bin	0.135	0
bin	0.14	1
bin	0.145	0
bin	0.15	0
bin	0.155	0
bin	0.16	0
bin	0.165	0
bin	0.17	0
bin	0.175	1
bin	0.18	0
bin	0.185	0
bin	0.19	0
bin	0.195	0
bin	0.2	0
bin	0.205	0
bin	0.21	1
bin	0.215	0
bin	0.22	0
bin	0.225	0
bin	0.23	0
bin	0.235	0
bin	0.24	0
bin	0.245	1
bin	0.25	0
bin	0.255	0
bin	0.26	0
bin	0.265	1
bin	0.27	0
bin	0.275	0
bin	0.28	2
bin	0.285	0
bin	0.29	0
bin	0.295	0
bin	0.3	0
bin	0.305	0
bin	0.31	0
bin	0.315	0
bin	0.32	0
bin	0.325	0
bin	0.33	0
bin	0.335	0
bin	0.34	0
bin	0.345	0
bin	0.35	0
bin	0.355	0
scalar projectphase3.R11.ppp[0].ppp.queue queueLength:max 8
attr interpolationmode sample-hold
attr source "count(packetPushed) - count(packetPopped) - count(packetRemoved) - count(packetDropped)"
attr title "queue length, max"
scalar projectphase3.R11.ppp[0].ppp.queue queueLength:timeavg 0.0017476951110858
attr interpolationmode sample-hold
attr source "count(packetPushed) - count(packetPopped) - count(packetRemoved) - count(packetDropped)"
attr title "queue length, timeavg"
scalar projectphase3.R11.ppp[0].ppp.queue packetPushed:count 197
attr interpolationmode none
attr title "packet pushed, count"
scalar projectphase3.R11.ppp[0].ppp.queue packetPushed:sum(packetBytes) 13984
attr interpolationmode none
attr title "packet pushed, sum(packetBytes)"
scalar projectphase3.R11.ppp[0].ppp.queue packetDropQueueOverflow:count 0
attr interpolationmode none
attr source packetDropReasonIsQueueOverflow(packetDropped)
attr title "packet drops: queue overflow, count"
scalar projectphase3.R11.ppp[0].ppp.queue packetDropQueueOverflow:sum(packetBytes) 0
attr interpolationmode none
attr source packetDropReasonIsQueueOverflow(packetDropped)
attr title "packet drops: queue overflow, sum(packetBytes)"
scalar projectphase3.R11.ppp[0].ppp.queue packetRemoved:count 0
attr interpolationmode none
attr title "packets removed, count"
scalar projectphase3.R11.ppp[0].ppp.queue packetRemoved:sum(packetBytes) 0
attr interpolationmode none
attr title "packets removed, sum(packetBytes)"
scalar projectphase3.R11.ppp[0].ppp txPk:count 197
attr interpolationmode none
attr source packetSentToLower
attr title "packets transmitted, count"
scalar projectphase3.R11.ppp[0].ppp txPk:sum(packetBytes) 15363
attr interpolationmode none
attr source packetSentToLower
attr title "packets transmitted, sum(packetBytes)"
scalar projectphase3.R11.ppp[0].ppp rcvdPkFromHl:count 197
attr interpolationmode none
attr source packetReceivedFromUpper
attr title "packets received from higher layer, count"
scalar projectphase3.R11.ppp[0].ppp rcvdPkFromHl:sum(packetBytes) 13984
attr interpolationmode none
attr source packetReceivedFromUpper
attr title "packets received from higher layer, sum(packetBytes)"
scalar projectphase3.R11.ppp[0].ppp passedUpPk:count 212
attr interpolationmode none
attr source packetSentToUpper
attr title "packets passed to higher layer, count"
scalar projectphase3.R11.ppp[0].ppp passedUpPk:sum(packetBytes) 19676
attr interpolationmode none
attr source packetSentToUpper
attr title "packets passed to higher layer, sum(packetBytes)"
scalar projectphase3.R11.ppp[0].ppp packetDropIncorrectlyReceived:count 0
attr interpolationmode none
attr source packetDropReasonIsIncorrectlyReceived(packetDropped)
attr title "packet drop: incorrectly received, count"
scalar projectphase3.R11.ppp[0].ppp packetDropIncorrectlyReceived:sum(packetBytes) 0
attr interpolationmode none
attr source packetDropReasonIsIncorrectlyReceived(packetDropped)
attr title "packet drop: incorrectly received, sum(packetBytes)"
scalar projectphase3.R11.ppp[0].ppp packetDropInterfaceDown:count 0
attr interpolationmode none
attr source packetDropReasonIsInterfaceDown(packetDropped)
attr title "packet drop: interface down, count"
scalar projectphase3.R11.ppp[0].ppp packetDropInterfaceDown:sum(packetBytes) 0
attr interpolationmode none
attr source packetDropReasonIsInterfaceDown(packetDropped)
attr title "packet drop: interface down, sum(packetBytes)"
scalar projectphase3.R11.ppp[0].ppp rxPkOk:count 212
attr interpolationmode none
attr source rxPkOk
attr title "packets received OK, count"
scalar projectphase3.R11.ppp[0].ppp rxPkOk:sum(packetBytes) 21160
attr interpolationmode none
attr source rxPkOk
attr title "packets received OK, sum(packetBytes)"
scalar projectphase3.R11.ppp[0].ppp transmissionState:timeavg 0.0061452
attr interpolationmode sample-hold
attr source transmissionStateChanged
attr title "tx state, timeavg"
scalar projectphase3.R11.ppp[1].ppp.queue packetPopped:count 209
attr interpolationmode none
attr title "packet popped, count"
scalar projectphase3.R11.ppp[1].ppp.queue packetPopped:sum(packetBytes) 19428
attr interpolationmode none
attr title "packet popped, sum(packetBytes)"
statistic projectphase3.R11.ppp[1].ppp.queue queueingTime:histogram
field count 209
field mean 0.00024005061717703
field stddev 0.0020897732724432
field min 0
field max 0.022028571572
field sum 0.05017057899
field sqrsum 0.00092041116313604
attr interpolationmode none
attr source queueingTime(packetPopped)
attr title "queueing times, histogram"
attr unit s
bin	-inf	0
bin	0	205
bin	0.0005	0
bin	0.001	0
bin	0.0015	1
bin	0.002	0
bin	0.0025	0
bin	0.003	0
bin	0.0035	0
bin	0.004	0
bin	0.0045	0
bin	0.005	0
bin	0.0055	0
bin	0.006	1
bin	0.0065	0
bin	0.007	0
bin	0.0075	0
bin	0.008	0
bin	0.0085	0
bin	0.009	0
bin	0.0095	0
bin	0.01	0
bin	0.0105	0
bin	0.011	0
bin	0.0115	0
bin	0.012	0
bin	0.0125	0
bin	0.013	0
bin	0.0135	0
bin	0.014	0
bin	0.0145	0
bin	0.015	0
bin	0.0155	0
bin	0.016	0
bin	0.0165	0
bin	0.017	0
bin	0.0175	0
bin	0.018	0
bin	0.0185	0
bin	0.019	0
bin	0.0195	1
bin	0.02	0
bin	0.0205	0
bin	0.021	0
bin	0.0215	0
bin	0.022	1
bin	0.0225	0
bin	0.023	0
bin	0.0235	0
bin	0.024	0
bin	0.0245	0
bin	0.025	0
bin	0.0255	0
bin	0.026	0
bin	0.0265	0
bin	0.027	0
bin	0.0275	0
bin	0.028	0
scalar projectphase3.R11.ppp[1].ppp.queue queueLength:max 1
attr interpolationmode sample-hold
attr source "count(packetPushed) - count(packetPopped) - count(packetRemoved) - count(packetDropped)"
attr title "queue length, max"
scalar projectphase3.R11.ppp[1].ppp.queue queueLength:timeavg 4.0139772413123e-05
attr interpolationmode sample-hold
attr source "count(packetPushed) - count(packetPopped) - count(packetRemoved) - count(packetDropped)"
attr title "queue length, timeavg"
scalar projectphase3.R11.ppp[1].ppp.queue packetPushed:count 209
attr interpolationmode none
attr title "packet pushed, count"
scalar projectphase3.R11.ppp[1].ppp.queue packetPushed:sum(packetBytes) 19428
attr interpolationmode none
attr title "packet pushed, sum(packetBytes)"
scalar projectphase3.R11.ppp[1].ppp.queue packetDropQueueOverflow:count 0
attr interpolationmode none
attr source packetDropReasonIsQueueOverflow(packetDropped)
attr title "packet drops: queue overflow, count"
scalar projectphase3.R11.ppp[1].ppp.queue packetDropQueueOverflow:sum(packetBytes) 0
attr interpolationmode none
attr source packetDropReasonIsQueueOverflow(packetDropped)
attr title "packet drops: queue overflow, sum(packetBytes)"
scalar projectphase3.R11.ppp[1].ppp.queue packetRemoved:count 0
attr interpolationmode none
attr title "packets removed, count"
scalar projectphase3.R11.ppp[1].ppp.queue packetRemoved:sum(packetBytes) 0
attr interpolationmode none
attr title "packets removed, sum(packetBytes)"
scalar projectphase3.R11.ppp[1].ppp txPk:count 209
attr interpolationmode none
attr source packetSentToLower
attr title "packets transmitted, count"
scalar projectphase3.R11.ppp[1].ppp txPk:sum(packetBytes) 20891
attr interpolationmode none
attr source packetSentToLower
attr title "packets transmitted, sum(packetBytes)"
scalar projectphase3.R11.ppp[1].ppp rcvdPkFromHl:count 209
attr interpolationmode none
attr source packetReceivedFromUpper
attr title "packets received from higher layer, count"
scalar projectphase3.R11.ppp[1].ppp rcvdPkFromHl:sum(packetBytes) 19428
attr interpolationmode none
attr source packetReceivedFromUpper
attr title "packets received from higher layer, sum(packetBytes)"
scalar projectphase3.R11.ppp[1].ppp passedUpPk:count 193
attr interpolationmode none
attr source packetSentToUpper
attr title "packets passed to higher layer, count"
scalar projectphase3.R11.ppp[1].ppp passedUpPk:sum(packetBytes) 13712
attr interpolationmode none
attr source packetSentToUpper
attr title "packets passed to higher layer, sum(packetBytes)"
scalar projectphase3.R11.ppp[1].ppp packetDropIncorrectlyReceived:count 0
attr interpolationmode none
attr source packetDropReasonIsIncorrectlyReceived(packetDropped)
attr title "packet drop: incorrectly received, count"
scalar projectphase3.R11.ppp[1].ppp packetDropIncorrectlyReceived:sum(packetBytes) 0
attr interpolationmode none
attr source packetDropReasonIsIncorrectlyReceived(packetDropped)
attr title "packet drop: incorrectly received, sum(packetBytes)"
scalar projectphase3.R11.ppp[1].ppp packetDropInterfaceDown:count 0
attr interpolationmode none
attr source packetDropReasonIsInterfaceDown(packetDropped)
attr title "packet drop: interface down, count"
scalar projectphase3.R11.ppp[1].ppp packetDropInterfaceDown:sum(packetBytes) 0
attr interpolationmode none
attr source packetDropReasonIsInterfaceDown(packetDropped)
attr title "packet drop: interface down, sum(packetBytes)"
scalar projectphase3.R11.ppp[1].ppp rxPkOk:count 193
attr interpolationmode none
attr source rxPkOk
attr title "packets received OK, count"
scalar projectphase3.R11.ppp[1].ppp rxPkOk:sum(packetBytes) 15063
attr interpolationmode none
attr source rxPkOk
attr title "packets received OK, sum(packetBytes)"
scalar projectphase3.R11.ppp[1].ppp transmissionState:timeavg 0.0041782
attr interpolationmode sample-hold
attr source transmissionStateChanged
attr title "tx state, timeavg"
scalar projectphase3.R11.ipv4.ip packetDropAddressResolutionFailed:count 0
attr interpolationmode none
attr source packetDropReasonIsAddressResolutionFailed(packetDropped)
attr title "packet drop: address resolution failed, count"
scalar projectphase3.R11.ipv4.ip packetDropAddressResolutionFailed:sum(packetBytes) 0
attr interpolationmode none
attr source packetDropReasonIsAddressResolutionFailed(packetDropped)
attr title "packet drop: address resolution failed, sum(packetBytes)"
scalar projectphase3.R11.ipv4.ip packetDropHopLimitReached:count 0
attr interpolationmode none
attr source packetDropReasonIsHopLimitReached(packetDropped)
attr title "packet drop: hop limit reached, count"
scalar projectphase3.R11.ipv4.ip packetDropHopLimitReached:sum(packetBytes) 0
attr interpolationmode none
attr source packetDropReasonIsHopLimitReached(packetDropped)
attr title "packet drop: hop limit reached, sum(packetBytes)"
scalar projectphase3.R11.ipv4.ip packetDropForwardingDisabled:count 0
attr interpolationmode none
attr source packetDropReasonIsForwardingDisabled(packetDropped)
attr title "packet drop: forwarding disabled, count"
scalar projectphase3.R11.ipv4.ip packetDropForwardingDisabled:sum(packetBytes) 0
attr interpolationmode none
attr source packetDropReasonIsForwardingDisabled(packetDropped)
attr title "packet drop: forwarding disabled, sum(packetBytes)"
scalar projectphase3.R11.ipv4.ip packetDropNoInterfaceFound:count 0
attr interpolationmode none
attr source packetDropReasonIsNoInterfaceFound(packetDropped)
attr title "packet drop: no interface found, count"
scalar projectphase3.R11.ipv4.ip packetDropNoInterfaceFound:sum(packetBytes) 0
attr interpolationmode none
attr source packetDropReasonIsNoInterfaceFound(packetDropped)
attr title "packet drop: no interface found, sum(packetBytes)"
scalar projectphase3.R11.ipv4.ip packetDropNoRouteFound:count 0
attr interpolationmode none
attr source packetDropReasonIsNoRouteFound(packetDropped)
attr title "packet drop: no route found, count"
scalar projectphase3.R11.ipv4.ip packetDropNoRouteFound:sum(packetBytes) 0
attr interpolationmode none
attr source packetDropReasonIsNoRouteFound(packetDropped)
attr title "packet drop: no route found, sum(packetBytes)"
scalar projectphase3.R11.ipv4.ip packetDropUndefined:count 0
attr interpolationmode none
attr source packetDropReasonIsUndefined(packetDropped)
attr title "packet drop: undefined, count"
scalar projectphase3.R11.ipv4.ip packetDropUndefined:sum(packetBytes) 0
attr interpolationmode none
attr source packetDropReasonIsUndefined(packetDropped)
attr title "packet drop: undefined, sum(packetBytes)"
scalar projectphase3.R11.ipv4.arp arpReplySent:count 0
attr source arpReplySent
attr title "ARP replies sent, count"
scalar projectphase3.R11.ipv4.arp arpReplySent:sum(packetBytes) 0
attr source arpReplySent
attr title "ARP replies sent, sum(packetBytes)"
scalar projectphase3.R11.ipv4.arp arpRequestSent:count 0
attr source arpRequestSent
attr title "ARP request sent, count"
scalar projectphase3.R11.ipv4.arp arpRequestSent:sum(packetBytes) 0
attr source arpRequestSent
attr title "ARP request sent, sum(packetBytes)"
scalar projectphase3.R11.ipv4.arp arpResolutionFailed:count 0
attr title "ARP failed resolutions, count"
scalar projectphase3.R11.ipv4.arp arpResolutionCompleted:count 0
attr title "ARP completed resolutions, count"
scalar projectphase3.R11.ipv4.arp arpResolutionInitiated:count 0
attr title "ARP initiated resolutions, count"

